*SPEF "ieee 1481-1999"
*DESIGN "addsub4_top"
*DATE "11:11:11 Fri 11 11, 1111"
*VENDOR "OpenRCX"
*PROGRAM "Parallel Extraction"
*VERSION "1.0"
*DESIGN_FLOW "NAME_SCOPE LOCAL" "PIN_CAP NONE"
*DIVIDER /
*DELIMITER :
*BUS_DELIMITER []
*T_UNIT 1 NS
*C_UNIT 1 PF
*R_UNIT 1 OHM
*L_UNIT 1 HENRY

*NAME_MAP
*3 a_in[0]
*4 a_in[1]
*5 a_in[2]
*6 a_in[3]
*7 b_in[0]
*8 b_in[1]
*9 b_in[2]
*10 b_in[3]
*11 clk
*12 cout_out
*13 ovf_out
*14 rst_n
*15 sub_in
*16 y_out[0]
*17 y_out[1]
*18 y_out[2]
*19 y_out[3]
*20 _00_
*21 _01_
*22 _02_
*23 _03_
*24 _04_
*25 _05_
*26 _06_
*27 _07_
*28 _08_
*29 _09_
*30 _10_
*31 _11_
*32 _12_
*33 _13_
*34 _14_
*35 _15_
*36 _16_
*37 _17_
*38 _18_
*39 _19_
*40 a_r\[0\]
*41 a_r\[1\]
*42 a_r\[2\]
*43 a_r\[3\]
*44 b_r\[0\]
*45 b_r\[1\]
*46 b_r\[2\]
*47 b_r\[3\]
*48 clknet_0_clk
*49 clknet_1_0__leaf_clk
*50 clknet_1_1__leaf_clk
*51 net1
*52 net10
*53 net11
*54 net12
*55 net13
*56 net14
*57 net15
*58 net16
*59 net17
*60 net18
*61 net19
*62 net2
*63 net20
*64 net21
*65 net3
*66 net4
*67 net5
*68 net6
*69 net7
*70 net8
*71 net9
*72 ovf
*73 sub_r
*74 sum\[0\]
*75 sum\[1\]
*76 sum\[2\]
*77 sum\[3\]
*78 sum\[4\]
*79 FILLER_0_0_26
*80 FILLER_0_0_29
*81 FILLER_0_0_41
*82 FILLER_0_0_49
*83 FILLER_0_0_55
*84 FILLER_0_0_57
*85 FILLER_0_0_69
*86 FILLER_0_0_77
*87 FILLER_0_0_83
*88 FILLER_0_0_85
*89 FILLER_0_0_91
*90 FILLER_0_10_15
*91 FILLER_0_10_27
*92 FILLER_0_10_29
*93 FILLER_0_10_3
*94 FILLER_0_10_57
*95 FILLER_0_10_79
*96 FILLER_0_10_83
*97 FILLER_0_10_85
*98 FILLER_0_10_93
*99 FILLER_0_11_23
*100 FILLER_0_11_49
*101 FILLER_0_11_55
*102 FILLER_0_11_57
*103 FILLER_0_11_80
*104 FILLER_0_11_92
*105 FILLER_0_12_21
*106 FILLER_0_12_27
*107 FILLER_0_12_29
*108 FILLER_0_12_41
*109 FILLER_0_12_53
*110 FILLER_0_12_57
*111 FILLER_0_12_66
*112 FILLER_0_12_78
*113 FILLER_0_12_85
*114 FILLER_0_12_9
*115 FILLER_0_12_91
*116 FILLER_0_13_23
*117 FILLER_0_13_52
*118 FILLER_0_13_57
*119 FILLER_0_13_69
*120 FILLER_0_13_81
*121 FILLER_0_13_93
*122 FILLER_0_14_29
*123 FILLER_0_14_3
*124 FILLER_0_14_7
*125 FILLER_0_14_85
*126 FILLER_0_14_93
*127 FILLER_0_15_12
*128 FILLER_0_15_24
*129 FILLER_0_15_29
*130 FILLER_0_15_34
*131 FILLER_0_15_42
*132 FILLER_0_15_48
*133 FILLER_0_15_57
*134 FILLER_0_15_65
*135 FILLER_0_15_69
*136 FILLER_0_15_81
*137 FILLER_0_15_85
*138 FILLER_0_1_49
*139 FILLER_0_1_55
*140 FILLER_0_1_57
*141 FILLER_0_1_61
*142 FILLER_0_1_82
*143 FILLER_0_1_90
*144 FILLER_0_2_15
*145 FILLER_0_2_27
*146 FILLER_0_2_29
*147 FILLER_0_2_3
*148 FILLER_0_2_41
*149 FILLER_0_2_53
*150 FILLER_0_2_61
*151 FILLER_0_2_85
*152 FILLER_0_2_93
*153 FILLER_0_3_15
*154 FILLER_0_3_27
*155 FILLER_0_3_3
*156 FILLER_0_3_39
*157 FILLER_0_3_51
*158 FILLER_0_3_55
*159 FILLER_0_3_57
*160 FILLER_0_3_69
*161 FILLER_0_3_81
*162 FILLER_0_3_93
*163 FILLER_0_4_15
*164 FILLER_0_4_27
*165 FILLER_0_4_29
*166 FILLER_0_4_3
*167 FILLER_0_4_41
*168 FILLER_0_4_53
*169 FILLER_0_4_68
*170 FILLER_0_4_72
*171 FILLER_0_4_85
*172 FILLER_0_4_93
*173 FILLER_0_5_3
*174 FILLER_0_5_48
*175 FILLER_0_5_57
*176 FILLER_0_5_7
*177 FILLER_0_5_82
*178 FILLER_0_5_94
*179 FILLER_0_6_18
*180 FILLER_0_6_26
*181 FILLER_0_6_35
*182 FILLER_0_6_50
*183 FILLER_0_6_6
*184 FILLER_0_6_62
*185 FILLER_0_6_88
*186 FILLER_0_7_15
*187 FILLER_0_7_27
*188 FILLER_0_7_3
*189 FILLER_0_7_49
*190 FILLER_0_7_55
*191 FILLER_0_7_57
*192 FILLER_0_7_72
*193 FILLER_0_7_82
*194 FILLER_0_7_94
*195 FILLER_0_8_15
*196 FILLER_0_8_27
*197 FILLER_0_8_29
*198 FILLER_0_8_3
*199 FILLER_0_8_37
*200 FILLER_0_8_64
*201 FILLER_0_8_76
*202 FILLER_0_8_85
*203 FILLER_0_8_93
*204 FILLER_0_9_15
*205 FILLER_0_9_3
*206 FILLER_0_9_49
*207 FILLER_0_9_55
*208 FILLER_0_9_57
*209 FILLER_0_9_69
*210 FILLER_0_9_77
*211 FILLER_0_9_87
*212 PHY_0
*213 PHY_1
*214 PHY_10
*215 PHY_11
*216 PHY_12
*217 PHY_13
*218 PHY_14
*219 PHY_15
*220 PHY_16
*221 PHY_17
*222 PHY_18
*223 PHY_19
*224 PHY_2
*225 PHY_20
*226 PHY_21
*227 PHY_22
*228 PHY_23
*229 PHY_24
*230 PHY_25
*231 PHY_26
*232 PHY_27
*233 PHY_28
*234 PHY_29
*235 PHY_3
*236 PHY_30
*237 PHY_31
*238 PHY_4
*239 PHY_5
*240 PHY_6
*241 PHY_7
*242 PHY_8
*243 PHY_9
*244 TAP_32
*245 TAP_33
*246 TAP_34
*247 TAP_35
*248 TAP_36
*249 TAP_37
*250 TAP_38
*251 TAP_39
*252 TAP_40
*253 TAP_41
*254 TAP_42
*255 TAP_43
*256 TAP_44
*257 TAP_45
*258 TAP_46
*259 TAP_47
*260 TAP_48
*261 TAP_49
*262 TAP_50
*263 TAP_51
*264 TAP_52
*265 TAP_53
*266 TAP_54
*267 TAP_55
*268 TAP_56
*269 TAP_57
*270 TAP_58
*271 _20_
*272 _21_
*273 _22_
*274 _23_
*275 _24_
*276 _25_
*277 _26_
*278 _27_
*279 _28_
*280 _29_
*281 _30_
*282 _31_
*283 _32_
*284 _33_
*285 _34_
*286 _35_
*287 _36_
*288 _37_
*289 _38_
*290 _39_
*291 _40_
*292 _41_
*293 _42_
*294 _43_
*295 _44_
*296 _45_
*297 _46_
*298 _47_
*299 _48_
*300 _49_
*301 _50_
*302 _51_
*303 _52_
*304 _53_
*305 _54_
*306 _55_
*307 _56_
*308 _57_
*309 _58_
*310 _59_
*311 _60_
*312 clkbuf_0_clk
*313 clkbuf_1_0__f_clk
*314 clkbuf_1_1__f_clk
*315 fanout17
*316 fanout18
*317 hold1
*318 hold2
*319 hold3
*320 input1
*321 input10
*322 input2
*323 input3
*324 input4
*325 input5
*326 input6
*327 input7
*328 input8
*329 input9
*330 output11
*331 output12
*332 output13
*333 output14
*334 output15
*335 output16

*PORTS
a_in[0] I
a_in[1] I
a_in[2] I
a_in[3] I
b_in[0] I
b_in[1] I
b_in[2] I
b_in[3] I
clk I
cout_out O
ovf_out O
rst_n I
sub_in I
y_out[0] O
y_out[1] O
y_out[2] O
y_out[3] O

*D_NET *3 0.000454574
*CONN
*P a_in[0] I
*I *320:A I *D sky130_fd_sc_hd__clkbuf_1
*CAP
1 a_in[0] 0.000227287
2 *320:A 0.000227287
*RES
1 a_in[0] *320:A 6.0987 
*END

*D_NET *4 0.00126634
*CONN
*P a_in[1] I
*I *322:A I *D sky130_fd_sc_hd__clkbuf_1
*CAP
1 a_in[1] 0.000633171
2 *322:A 0.000633171
*RES
1 a_in[1] *322:A 14.49 
*END

*D_NET *5 0.00108108
*CONN
*P a_in[2] I
*I *323:A I *D sky130_fd_sc_hd__clkbuf_1
*CAP
1 a_in[2] 0.000540542
2 *323:A 0.000540542
3 *323:A y_out[2] 0
*RES
1 a_in[2] *323:A 8.76637 
*END

*D_NET *6 0.00105685
*CONN
*P a_in[3] I
*I *324:A I *D sky130_fd_sc_hd__clkbuf_1
*CAP
1 a_in[3] 0.000518411
2 *324:A 0.000518411
3 *324:A *306:D 2.00244e-05
*RES
1 a_in[3] *324:A 12.675 
*END

*D_NET *7 0.00110755
*CONN
*P b_in[0] I
*I *325:A I *D sky130_fd_sc_hd__clkbuf_1
*CAP
1 b_in[0] 0.000491783
2 *325:A 0.000491783
3 *325:A *42:14 0.00012398
*RES
1 b_in[0] *325:A 12.57 
*END

*D_NET *8 0.00297287
*CONN
*P b_in[1] I
*I *326:A I *D sky130_fd_sc_hd__clkbuf_1
*CAP
1 b_in[1] 0.00135842
2 *326:A 0.00135842
3 *326:A ovf_out 0
4 *326:A *302:D 0.000249437
5 *326:A *331:A 6.60261e-06
*RES
1 b_in[1] *326:A 22.875 
*END

*D_NET *9 0.00128756
*CONN
*P b_in[2] I
*I *327:A I *D sky130_fd_sc_hd__clkbuf_1
*CAP
1 b_in[2] 0.00064378
2 *327:A 0.00064378
3 *327:A *321:A 0
*RES
1 b_in[2] *327:A 9.6081 
*END

*D_NET *10 0.000878346
*CONN
*P b_in[3] I
*I *328:A I *D sky130_fd_sc_hd__clkbuf_1
*CAP
1 b_in[3] 0.00043671
2 *328:A 0.00043671
3 *328:A *304:D 4.9253e-06
*RES
1 b_in[3] *328:A 11.04 
*END

*D_NET *11 0.00481224
*CONN
*P clk I
*I *312:A I *D sky130_fd_sc_hd__clkbuf_16
*CAP
1 clk 0.00192926
2 *312:A 0.00192926
3 *312:A *274:B 0.000212214
4 *312:A *292:B_N 8.52883e-05
5 *312:A *293:A 4.79369e-05
6 *312:A *302:CLK 4.05053e-05
7 *312:A *302:RESET_B 0.000208458
8 *312:A *308:D 0
9 *312:A *313:A 5.19138e-05
10 *312:A *45:10 9.05592e-05
11 *312:A *48:16 9.5616e-05
12 *312:A *59:14 2.88689e-05
13 *312:A *59:73 0
14 *312:A *73:69 9.23578e-05
*RES
1 clk *312:A 31.9985 
*END

*D_NET *12 0.000541193
*CONN
*P cout_out O
*I *330:X O *D sky130_fd_sc_hd__buf_2
*CAP
1 cout_out 0.000270596
2 *330:X 0.000270596
*RES
1 *330:X cout_out 4.90503 
*END

*D_NET *13 0.000625924
*CONN
*P ovf_out O
*I *331:X O *D sky130_fd_sc_hd__clkbuf_4
*CAP
1 ovf_out 0.000312962
2 *331:X 0.000312962
3 *326:A ovf_out 0
*RES
1 *331:X ovf_out 7.07543 
*END

*D_NET *14 0.000512528
*CONN
*P rst_n I
*I *329:A I *D sky130_fd_sc_hd__buf_1
*CAP
1 rst_n 0.000256264
2 *329:A 0.000256264
*RES
1 rst_n *329:A 5.35677 
*END

*D_NET *15 0.00107822
*CONN
*P sub_in I
*I *321:A I *D sky130_fd_sc_hd__clkbuf_1
*CAP
1 sub_in 0.00053911
2 *321:A 0.00053911
3 *327:A *321:A 0
*RES
1 sub_in *321:A 12.885 
*END

*D_NET *16 0.000847871
*CONN
*P y_out[0] O
*I *332:X O *D sky130_fd_sc_hd__clkbuf_4
*CAP
1 y_out[0] 0.000415347
2 *332:X 0.000415347
3 y_out[0] *302:D 1.71773e-05
*RES
1 *332:X y_out[0] 10.74 
*END

*D_NET *17 0.00067138
*CONN
*P y_out[1] O
*I *333:X O *D sky130_fd_sc_hd__clkbuf_4
*CAP
1 y_out[1] 0.00033569
2 *333:X 0.00033569
3 y_out[1] *333:A 0
*RES
1 *333:X y_out[1] 7.33043 
*END

*D_NET *18 0.0010574
*CONN
*P y_out[2] O
*I *334:X O *D sky130_fd_sc_hd__clkbuf_4
*CAP
1 y_out[2] 0.0005287
2 *334:X 0.0005287
3 *323:A y_out[2] 0
*RES
1 *334:X y_out[2] 12.06 
*END

*D_NET *19 0.000570631
*CONN
*P y_out[3] O
*I *335:X O *D sky130_fd_sc_hd__clkbuf_4
*CAP
1 y_out[3] 0.000285316
2 *335:X 0.000285316
*RES
1 *335:X y_out[3] 6.15697 
*END

*D_NET *20 0.00166744
*CONN
*I *280:B I *D sky130_fd_sc_hd__and3_1
*I *273:A1 I *D sky130_fd_sc_hd__a21o_1
*I *271:X O *D sky130_fd_sc_hd__or2_1
*CAP
1 *280:B 0.000305426
2 *273:A1 9.33099e-05
3 *271:X 0
4 *20:4 0.000398736
5 *273:A1 *273:A2 0.00011774
6 *273:A1 *280:A 2.05962e-05
7 *273:A1 *42:14 1.75875e-05
8 *280:B *271:B 0.00014669
9 *280:B *273:A2 0.000272045
10 *280:B *280:A 9.12857e-06
11 *280:B *280:C 7.27428e-05
12 *280:B *306:D 0
13 *280:B *73:57 0.000213434
*RES
1 *271:X *20:4 1.6 
2 *20:4 *273:A1 3.715 
3 *20:4 *280:B 12.065 
*END

*D_NET *21 0.00184532
*CONN
*I *273:A2 I *D sky130_fd_sc_hd__a21o_1
*I *280:C I *D sky130_fd_sc_hd__and3_1
*I *272:Y O *D sky130_fd_sc_hd__nand2_1
*CAP
1 *273:A2 0.000193355
2 *280:C 4.55805e-05
3 *272:Y 0.000219631
4 *21:8 0.000458566
5 *273:A2 *280:A 0.000275424
6 *280:C *280:A 3.54721e-05
7 *21:8 *309:RESET_B 0.000154764
8 *273:A1 *273:A2 0.00011774
9 *280:B *273:A2 0.000272045
10 *280:B *280:C 7.27428e-05
*RES
1 *272:Y *21:8 6.12 
2 *21:8 *280:C 4.635 
3 *21:8 *273:A2 9.585 
*END

*D_NET *22 0.00163308
*CONN
*I *281:A1 I *D sky130_fd_sc_hd__a21o_1
*I *294:B_N I *D sky130_fd_sc_hd__or2b_1
*I *273:X O *D sky130_fd_sc_hd__a21o_1
*CAP
1 *281:A1 0
2 *294:B_N 0.000179237
3 *273:X 0.000252763
4 *22:14 0.000432
5 *294:B_N *281:A2 5.83121e-06
6 *294:B_N *281:B1 0.000281391
7 *294:B_N *295:A 0.00015971
8 *294:B_N *28:20 4.21579e-05
9 *294:B_N *29:6 9.76407e-06
10 *22:14 *281:A2 1.41095e-05
11 *22:14 *295:B 7.14511e-05
12 *22:14 *299:D 7.1624e-05
13 *22:14 *307:D 6.51815e-05
14 *22:14 *42:14 4.78613e-05
*RES
1 *273:X *22:14 10.1 
2 *22:14 *294:B_N 5.875 
3 *22:14 *281:A1 1.6 
*END

*D_NET *23 0.000818549
*CONN
*I *276:A1 I *D sky130_fd_sc_hd__a21o_1
*I *278:B I *D sky130_fd_sc_hd__and3_1
*I *274:X O *D sky130_fd_sc_hd__or2_1
*CAP
1 *276:A1 0
2 *278:B 0.000172116
3 *274:X 7.79231e-05
4 *23:6 0.000250039
5 *278:B *278:A 8.88182e-06
6 *278:B *278:C 4.85636e-05
7 *278:B *24:14 5.34458e-05
8 *23:6 *275:A 8.71672e-05
9 *23:6 *25:10 0.000120412
*RES
1 *274:X *23:6 3.43 
2 *23:6 *278:B 4.21 
3 *23:6 *276:A1 1.6 
*END

*D_NET *24 0.000758764
*CONN
*I *278:C I *D sky130_fd_sc_hd__and3_1
*I *276:A2 I *D sky130_fd_sc_hd__a21o_1
*I *275:Y O *D sky130_fd_sc_hd__nand2_1
*CAP
1 *278:C 7.12817e-05
2 *276:A2 0
3 *275:Y 0.000200611
4 *24:14 0.000271893
5 *278:C *278:A 5.3647e-05
6 *24:14 *275:A 5.01076e-05
7 *24:14 *297:D 5.09835e-06
8 *24:14 *59:69 4.11678e-06
9 *278:B *278:C 4.85636e-05
10 *278:B *24:14 5.34458e-05
*RES
1 *275:Y *24:14 8.48 
2 *24:14 *276:A2 1.6 
3 *24:14 *278:C 3.265 
*END

*D_NET *25 0.00124467
*CONN
*I *279:A1 I *D sky130_fd_sc_hd__a21o_1
*I *292:B_N I *D sky130_fd_sc_hd__or2b_1
*I *276:X O *D sky130_fd_sc_hd__a21o_1
*CAP
1 *279:A1 0.000191696
2 *292:B_N 1.87513e-05
3 *276:X 0.000160136
4 *25:10 0.000370583
5 *279:A1 *279:A2 5.077e-05
6 *279:A1 *293:A 0.000112595
7 *279:A1 *293:B 1.22325e-05
8 *279:A1 *316:A 6.64038e-06
9 *279:A1 *26:12 3.5678e-06
10 *292:B_N *48:16 4.8854e-05
11 *25:10 *278:A 4.28112e-06
12 *25:10 *316:A 5.88634e-05
13 *312:A *292:B_N 8.52883e-05
14 *23:6 *25:10 0.000120412
*RES
1 *276:X *25:10 6.12 
2 *25:10 *292:B_N 4.395 
3 *25:10 *279:A1 7.35 
*END

*D_NET *26 0.000369774
*CONN
*I *279:A2 I *D sky130_fd_sc_hd__a21o_1
*I *293:B I *D sky130_fd_sc_hd__xnor2_1
*I *277:X O *D sky130_fd_sc_hd__mux2_1
*CAP
1 *279:A2 3.60493e-05
2 *293:B 1.50077e-05
3 *277:X 8.15776e-05
4 *26:12 0.000132635
5 *26:12 *316:A 3.79351e-05
6 *279:A1 *279:A2 5.077e-05
7 *279:A1 *293:B 1.22325e-05
8 *279:A1 *26:12 3.5678e-06
*RES
1 *277:X *26:12 7.085 
2 *26:12 *293:B 1.96 
3 *26:12 *279:A2 2.395 
*END

*D_NET *27 0.00123226
*CONN
*I *279:B1 I *D sky130_fd_sc_hd__a21o_1
*I *292:A I *D sky130_fd_sc_hd__or2b_1
*I *278:X O *D sky130_fd_sc_hd__and3_1
*CAP
1 *279:B1 0.000109744
2 *292:A 0.000153345
3 *278:X 0.000125489
4 *27:8 0.000388577
5 *279:B1 *318:A 7.41023e-05
6 *279:B1 *28:20 4.90227e-05
7 *292:A *48:16 0.000235352
8 *27:8 *318:A 9.66249e-05
*RES
1 *278:X *27:8 5.745 
2 *27:8 *292:A 5.775 
3 *27:8 *279:B1 6.03 
*END

*D_NET *28 0.00277428
*CONN
*I *295:B I *D sky130_fd_sc_hd__xnor2_1
*I *281:A2 I *D sky130_fd_sc_hd__a21o_1
*I *279:X O *D sky130_fd_sc_hd__a21o_1
*CAP
1 *295:B 0.000121923
2 *281:A2 4.85453e-05
3 *279:X 0.000634896
4 *28:20 0.000805364
5 *295:B *295:A 0.000112284
6 *295:B *299:D 7.28465e-06
7 *295:B *307:D 0
8 *295:B *60:22 2.11702e-05
9 *28:20 *272:B 0
10 *28:20 *281:B1 0.000289491
11 *28:20 *30:20 0
12 *28:20 *44:12 5.88634e-05
13 *28:20 *73:57 0.000491885
14 *279:B1 *28:20 4.90227e-05
15 *294:B_N *281:A2 5.83121e-06
16 *294:B_N *28:20 4.21579e-05
17 *22:14 *281:A2 1.41095e-05
18 *22:14 *295:B 7.14511e-05
*RES
1 *279:X *28:20 17.765 
2 *28:20 *281:A2 2.41 
3 *28:20 *295:B 8 
*END

*D_NET *29 0.00090058
*CONN
*I *281:B1 I *D sky130_fd_sc_hd__a21o_1
*I *294:A I *D sky130_fd_sc_hd__or2b_1
*I *280:X O *D sky130_fd_sc_hd__and3_1
*CAP
1 *281:B1 8.54595e-05
2 *294:A 0
3 *280:X 7.45076e-05
4 *29:6 0.000159967
5 *294:B_N *281:B1 0.000281391
6 *294:B_N *29:6 9.76407e-06
7 *28:20 *281:B1 0.000289491
*RES
1 *280:X *29:6 2.395 
2 *29:6 *294:A 1.6 
3 *29:6 *281:B1 4.99 
*END

*D_NET *30 0.00538372
*CONN
*I *296:A1 I *D sky130_fd_sc_hd__o21a_1
*I *289:A1 I *D sky130_fd_sc_hd__o22a_1
*I *290:A1 I *D sky130_fd_sc_hd__o21a_1
*I *288:A I *D sky130_fd_sc_hd__nand2_1
*I *281:X O *D sky130_fd_sc_hd__a21o_1
*CAP
1 *296:A1 7.34886e-05
2 *289:A1 0
3 *290:A1 2.21593e-05
4 *288:A 7.97908e-05
5 *281:X 0.00164111
6 *30:44 0.000139687
7 *30:31 8.83573e-05
8 *30:20 0.0017209
9 *288:A *300:CLK 9.42138e-05
10 *288:A *37:10 0.000110785
11 *290:A1 *290:B1 4.71087e-05
12 *290:A1 *304:D 8.41384e-05
13 *296:A1 *289:A2 3.6355e-05
14 *296:A1 *296:A2 4.89395e-05
15 *296:A1 *304:D 0.000172875
16 *296:A1 *33:29 0.000122219
17 *30:20 *291:A 7.27298e-06
18 *30:20 *300:CLK 5.26773e-05
19 *30:20 *300:D 7.03219e-05
20 *30:20 *306:RESET_B 0.00014697
21 *30:20 *311:RESET_B 9.06792e-05
22 *30:20 *317:A 0.000119051
23 *30:20 *37:10 2.98644e-05
24 *30:20 *60:22 7.14241e-05
25 *30:44 *289:A2 4.89295e-05
26 *30:44 *290:B1 2.49909e-05
27 *30:44 *304:D 0.000123675
28 *30:44 *33:29 0.000115738
29 *28:20 *30:20 0
*RES
1 *281:X *30:20 32.56 
2 *30:20 *288:A 5.745 
3 *30:20 *30:31 2 
4 *30:31 *290:A1 2.395 
5 *30:31 *30:44 2.295 
6 *30:44 *289:A1 1.6 
7 *30:44 *296:A1 4.24 
*END

*D_NET *31 0.000876892
*CONN
*I *285:A1 I *D sky130_fd_sc_hd__a21oi_1
*I *284:B I *D sky130_fd_sc_hd__and3_1
*I *282:X O *D sky130_fd_sc_hd__or2_1
*CAP
1 *285:A1 0.000106078
2 *284:B 6.30529e-05
3 *282:X 8.71884e-05
4 *31:10 0.000256319
5 *284:B *284:C 2.98126e-05
6 *285:A1 *284:C 1.56428e-05
7 *285:A1 *32:14 5.34565e-05
8 *285:A1 *34:8 3.1562e-06
9 *31:10 *303:RESET_B 3.33871e-05
10 *31:10 *32:14 7.03219e-05
11 *31:10 *33:23 9.37411e-05
12 *31:10 *59:102 6.47357e-05
*RES
1 *282:X *31:10 8.51 
2 *31:10 *284:B 2.395 
3 *31:10 *285:A1 3.265 
*END

*D_NET *32 0.00118395
*CONN
*I *285:A2 I *D sky130_fd_sc_hd__a21oi_1
*I *284:C I *D sky130_fd_sc_hd__and3_1
*I *283:Y O *D sky130_fd_sc_hd__nand2_1
*CAP
1 *285:A2 0
2 *284:C 4.97845e-05
3 *283:Y 0.000300276
4 *32:14 0.000350061
5 *284:C *34:8 0.000111912
6 *32:14 *283:B 0.000112125
7 *32:14 *303:RESET_B 9.05592e-05
8 *284:B *284:C 2.98126e-05
9 *285:A1 *284:C 1.56428e-05
10 *285:A1 *32:14 5.34565e-05
11 *31:10 *32:14 7.03219e-05
*RES
1 *283:Y *32:14 10.205 
2 *32:14 *284:C 3.265 
3 *32:14 *285:A2 1.6 
*END

*D_NET *33 0.00237221
*CONN
*I *296:A2 I *D sky130_fd_sc_hd__o21a_1
*I *289:B2 I *D sky130_fd_sc_hd__o22a_1
*I *290:A2 I *D sky130_fd_sc_hd__o21a_1
*I *286:A I *D sky130_fd_sc_hd__nor2_1
*I *284:X O *D sky130_fd_sc_hd__and3_1
*CAP
1 *296:A2 1.67127e-05
2 *289:B2 0
3 *290:A2 0.000200121
4 *286:A 0.000120328
5 *284:X 0
6 *33:29 0.000370657
7 *33:23 0.000347498
8 *33:4 0.000280578
9 *286:A *286:B 8.52939e-05
10 *290:A2 *304:D 0.000192328
11 *290:A2 *37:10 7.01359e-05
12 *33:23 *287:A 0.000258724
13 *33:23 *296:B1 9.12494e-06
14 *33:23 *34:8 8.73389e-06
15 *33:29 *290:B1 3.13354e-05
16 *296:A1 *296:A2 4.89395e-05
17 *296:A1 *33:29 0.000122219
18 *30:44 *33:29 0.000115738
19 *31:10 *33:23 9.37411e-05
*RES
1 *284:X *33:4 1.6 
2 *33:4 *286:A 3.805 
3 *33:4 *33:23 8.125 
4 *33:23 *33:29 3.24 
5 *33:29 *290:A2 8.3 
6 *33:29 *289:B2 1.6 
7 *33:23 *296:A2 2.05 
*END

*D_NET *34 0.00213146
*CONN
*I *287:A I *D sky130_fd_sc_hd__inv_2
*I *286:B I *D sky130_fd_sc_hd__nor2_1
*I *285:Y O *D sky130_fd_sc_hd__a21oi_1
*CAP
1 *287:A 0.00031017
2 *286:B 3.35077e-05
3 *285:Y 0.000235667
4 *34:8 0.000579345
5 *287:A *289:A2 0.000223399
6 *287:A *296:B1 0.000147167
7 *287:A *301:D 0.000134379
8 *284:C *34:8 0.000111912
9 *285:A1 *34:8 3.1562e-06
10 *286:A *286:B 8.52939e-05
11 *33:23 *287:A 0.000258724
12 *33:23 *34:8 8.73389e-06
*RES
1 *285:Y *34:8 4.70875 
2 *34:8 *286:B 2.395 
3 *34:8 *287:A 13.085 
*END

*D_NET *35 0.000765958
*CONN
*I *289:A2 I *D sky130_fd_sc_hd__o22a_1
*I *286:Y O *D sky130_fd_sc_hd__nor2_1
*CAP
1 *289:A2 0.000185416
2 *286:Y 0.000185416
3 *289:A2 *304:D 8.64421e-05
4 *287:A *289:A2 0.000223399
5 *296:A1 *289:A2 3.6355e-05
6 *30:44 *289:A2 4.89295e-05
*RES
1 *286:Y *289:A2 11.67 
*END

*D_NET *36 0.000771317
*CONN
*I *296:B1 I *D sky130_fd_sc_hd__o21a_1
*I *288:B I *D sky130_fd_sc_hd__nand2_1
*I *287:Y O *D sky130_fd_sc_hd__inv_2
*CAP
1 *296:B1 0.000182008
2 *288:B 0.000125504
3 *287:Y 0
4 *36:4 0.000307512
5 *287:A *296:B1 0.000147167
6 *33:23 *296:B1 9.12494e-06
*RES
1 *287:Y *36:4 1.6 
2 *36:4 *288:B 3.61 
3 *36:4 *296:B1 8.375 
*END

*D_NET *37 0.000826766
*CONN
*I *290:B1 I *D sky130_fd_sc_hd__o21a_1
*I *289:B1 I *D sky130_fd_sc_hd__o22a_1
*I *288:Y O *D sky130_fd_sc_hd__nand2_1
*CAP
1 *290:B1 0.000151565
2 *289:B1 0
3 *288:Y 6.67504e-05
4 *37:10 0.000218315
5 *290:B1 *304:D 7.59153e-05
6 *288:A *37:10 0.000110785
7 *290:A1 *290:B1 4.71087e-05
8 *290:A2 *37:10 7.01359e-05
9 *30:20 *37:10 2.98644e-05
10 *30:44 *290:B1 2.49909e-05
11 *33:29 *290:B1 3.13354e-05
*RES
1 *288:Y *37:10 7.235 
2 *37:10 *289:B1 1.6 
3 *37:10 *290:B1 4.495 
*END

*D_NET *38 0.000651616
*CONN
*I *293:A I *D sky130_fd_sc_hd__xnor2_1
*I *292:X O *D sky130_fd_sc_hd__or2b_1
*CAP
1 *293:A 0.000114504
2 *292:X 0.000114504
3 *293:A *316:A 0.000178569
4 *293:A *48:16 8.35068e-05
5 *279:A1 *293:A 0.000112595
6 *312:A *293:A 4.79369e-05
*RES
1 *292:X *293:A 10.14 
*END

*D_NET *39 0.000636339
*CONN
*I *295:A I *D sky130_fd_sc_hd__xnor2_1
*I *294:X O *D sky130_fd_sc_hd__or2b_1
*CAP
1 *295:A 0.000158656
2 *294:X 0.000158656
3 *295:A *60:22 4.70326e-05
4 *294:B_N *295:A 0.00015971
5 *295:B *295:A 0.000112284
*RES
1 *294:X *295:A 10.065 
*END

*D_NET *40 0.0018327
*CONN
*I *317:A I *D sky130_fd_sc_hd__dlygate4sd3_1
*I *277:A1 I *D sky130_fd_sc_hd__mux2_1
*I *303:Q O *D sky130_fd_sc_hd__dfrtp_1
*CAP
1 *317:A 0.000179141
2 *277:A1 0.000500647
3 *303:Q 0
4 *40:4 0.000679789
5 *277:A1 *291:B 0.000104662
6 *277:A1 *318:A 1.64141e-05
7 *277:A1 *44:12 4.66108e-05
8 *277:A1 *60:40 3.12521e-05
9 *277:A1 *73:57 4.66108e-05
10 *317:A *50:22 0.000108517
11 *30:20 *317:A 0.000119051
*RES
1 *303:Q *40:4 1.6 
2 *40:4 *277:A1 12.635 
3 *40:4 *317:A 9.485 
*END

*D_NET *41 0.00210531
*CONN
*I *278:A I *D sky130_fd_sc_hd__and3_1
*I *276:B1 I *D sky130_fd_sc_hd__a21o_1
*I *304:Q O *D sky130_fd_sc_hd__dfrtp_1
*CAP
1 *278:A 0.000193905
2 *276:B1 0
3 *304:Q 0.000377643
4 *41:10 0.000571548
5 *278:A *316:A 1.05878e-05
6 *278:A *318:A 0
7 *41:10 *275:A 0.00013475
8 *41:10 *304:CLK 0.000348608
9 *41:10 *304:RESET_B 2.34984e-05
10 *41:10 *316:A 0.000135667
11 *41:10 *45:10 5.80229e-05
12 *41:10 *59:14 5.09431e-05
13 *41:10 *59:69 8.27307e-05
14 *41:10 *59:73 5.05981e-05
15 *278:B *278:A 8.88182e-06
16 *278:C *278:A 5.3647e-05
17 *25:10 *278:A 4.28112e-06
*RES
1 *304:Q *41:10 12.285 
2 *41:10 *276:B1 3.6 
3 *41:10 *278:A 6.27 
*END

*D_NET *42 0.00222181
*CONN
*I *280:A I *D sky130_fd_sc_hd__and3_1
*I *273:B1 I *D sky130_fd_sc_hd__a21o_1
*I *305:Q O *D sky130_fd_sc_hd__dfrtp_1
*CAP
1 *280:A 0.000519037
2 *273:B1 0
3 *305:Q 0.000326843
4 *42:14 0.00084588
5 *280:A *306:D 0
6 *273:A1 *280:A 2.05962e-05
7 *273:A1 *42:14 1.75875e-05
8 *273:A2 *280:A 0.000275424
9 *280:B *280:A 9.12857e-06
10 *280:C *280:A 3.54721e-05
11 *325:A *42:14 0.00012398
12 *22:14 *42:14 4.78613e-05
*RES
1 *305:Q *42:14 11.24 
2 *42:14 *273:B1 1.6 
3 *42:14 *280:A 14.84 
*END

*D_NET *43 0.00102779
*CONN
*I *319:A I *D sky130_fd_sc_hd__dlygate4sd3_1
*I *284:A I *D sky130_fd_sc_hd__and3_1
*I *306:Q O *D sky130_fd_sc_hd__dfrtp_1
*CAP
1 *319:A 3.76639e-05
2 *284:A 0.000201422
3 *306:Q 5.96019e-05
4 *43:8 0.000298687
5 *284:A *303:RESET_B 0.000315893
6 *43:8 *303:RESET_B 0.000114524
*RES
1 *306:Q *43:8 4.98 
2 *43:8 *284:A 8.085 
3 *43:8 *319:A 4.05 
*END

*D_NET *44 0.000942666
*CONN
*I *291:B I *D sky130_fd_sc_hd__xor2_1
*I *277:S I *D sky130_fd_sc_hd__mux2_1
*I *307:Q O *D sky130_fd_sc_hd__dfrtp_1
*CAP
1 *291:B 8.52192e-05
2 *277:S 0
3 *307:Q 0.000109221
4 *44:12 0.000194441
5 *291:B *50:14 0.000233604
6 *44:12 *50:14 6.03315e-05
7 *44:12 *73:57 2.10152e-05
8 *44:12 *73:69 2.86975e-05
9 *277:A1 *291:B 0.000104662
10 *277:A1 *44:12 4.66108e-05
11 *28:20 *44:12 5.88634e-05
*RES
1 *307:Q *44:12 8.12 
2 *44:12 *277:S 1.6 
3 *44:12 *291:B 4.495 
*END

*D_NET *45 0.00316878
*CONN
*I *274:B I *D sky130_fd_sc_hd__or2_1
*I *275:B I *D sky130_fd_sc_hd__nand2_1
*I *308:Q O *D sky130_fd_sc_hd__dfrtp_1
*CAP
1 *274:B 0.000161944
2 *275:B 5.69513e-05
3 *308:Q 0.000808016
4 *45:10 0.00102691
5 *274:B *73:69 1.08758e-05
6 *275:B *275:A 5.12969e-06
7 *275:B *316:A 0.000114858
8 *275:B *59:69 0.000197826
9 *45:10 *308:RESET_B 0.000153727
10 *45:10 *59:14 0.00027174
11 *312:A *274:B 0.000212214
12 *312:A *45:10 9.05592e-05
13 *41:10 *45:10 5.80229e-05
*RES
1 *308:Q *45:10 13.8 
2 *45:10 *275:B 5.79 
3 *45:10 *274:B 6.705 
*END

*D_NET *46 0.00078375
*CONN
*I *271:A I *D sky130_fd_sc_hd__or2_1
*I *272:A I *D sky130_fd_sc_hd__nand2_1
*I *309:Q O *D sky130_fd_sc_hd__dfrtp_1
*CAP
1 *271:A 9.03454e-05
2 *272:A 6.98575e-05
3 *309:Q 6.06973e-05
4 *46:8 0.0002209
5 *271:A *271:B 6.89789e-05
6 *272:A *271:B 2.85764e-05
7 *272:A *272:B 9.3593e-05
8 *272:A *309:RESET_B 0.000123955
9 *46:8 *272:B 2.68464e-05
*RES
1 *309:Q *46:8 4.395 
2 *46:8 *272:A 5.715 
3 *46:8 *271:A 5.235 
*END

*D_NET *47 0.0022081
*CONN
*I *283:B I *D sky130_fd_sc_hd__nand2_1
*I *282:B I *D sky130_fd_sc_hd__or2_1
*I *310:Q O *D sky130_fd_sc_hd__dfrtp_1
*CAP
1 *283:B 0.000149189
2 *282:B 0
3 *310:Q 0.000193609
4 *47:8 0.000342798
5 *283:B *282:A 0.000136685
6 *283:B *283:A 0.00012281
7 *283:B *303:RESET_B 1.82111e-05
8 *283:B *335:A 4.40028e-05
9 *283:B *59:102 8.26522e-05
10 *283:B *73:8 2.07338e-05
11 *47:8 *304:D 0.000612263
12 *47:8 *59:95 6.30072e-05
13 *47:8 *59:102 0.000310009
14 *32:14 *283:B 0.000112125
*RES
1 *310:Q *47:8 11.355 
2 *47:8 *282:B 3.6 
3 *47:8 *283:B 8.28 
*END

*D_NET *48 0.00557822
*CONN
*I *314:A I *D sky130_fd_sc_hd__clkbuf_16
*I *313:A I *D sky130_fd_sc_hd__clkbuf_16
*I *312:X O *D sky130_fd_sc_hd__clkbuf_16
*CAP
1 *314:A 0.000106158
2 *313:A 0.00155422
3 *312:X 0.000627238
4 *48:16 0.00228762
5 *313:A *49:29 0.000298345
6 *314:A *298:D 4.60123e-05
7 *314:A *73:69 0.000124518
8 *48:16 *73:69 1.88602e-05
9 *292:A *48:16 0.000235352
10 *292:B_N *48:16 4.8854e-05
11 *293:A *48:16 8.35068e-05
12 *312:A *313:A 5.19138e-05
13 *312:A *48:16 9.5616e-05
*RES
1 *312:X *48:16 14.4225 
2 *48:16 *313:A 11.4478 
3 *48:16 *314:A 5.9025 
*END

*D_NET *49 0.0079515
*CONN
*I *310:CLK I *D sky130_fd_sc_hd__dfrtp_1
*I *300:CLK I *D sky130_fd_sc_hd__dfrtp_1
*I *301:CLK I *D sky130_fd_sc_hd__dfrtp_1
*I *297:CLK I *D sky130_fd_sc_hd__dfrtp_1
*I *308:CLK I *D sky130_fd_sc_hd__dfrtp_1
*I *304:CLK I *D sky130_fd_sc_hd__dfrtp_1
*I *302:CLK I *D sky130_fd_sc_hd__dfrtp_1
*I *313:X O *D sky130_fd_sc_hd__clkbuf_16
*CAP
1 *310:CLK 0
2 *300:CLK 0.000527729
3 *301:CLK 5.66345e-05
4 *297:CLK 0
5 *308:CLK 0
6 *304:CLK 0.000579176
7 *302:CLK 0.000133519
8 *313:X 0.000175071
9 *49:70 0.000725437
10 *49:66 0.000389164
11 *49:59 0.000854355
12 *49:29 0.000917274
13 *49:23 0.00117586
14 *49:6 0.000540086
15 *300:CLK *300:D 7.72553e-05
16 *302:CLK *302:D 7.33728e-05
17 *304:CLK *304:D 4.92695e-05
18 *304:CLK *304:RESET_B 9.83921e-06
19 *304:CLK *59:14 1.32102e-05
20 *49:29 *308:D 0.000278596
21 *49:59 *297:D 1.53871e-05
22 *49:59 *297:RESET_B 1.37141e-05
23 *49:59 *332:A 0.000273938
24 *49:59 *59:85 2.34435e-05
25 *49:66 *59:85 0.000214818
26 *288:A *300:CLK 9.42138e-05
27 *312:A *302:CLK 4.05053e-05
28 *313:A *49:29 0.000298345
29 *30:20 *300:CLK 5.26773e-05
30 *41:10 *304:CLK 0.000348608
*RES
1 *313:X *49:6 3.43 
2 *49:6 *302:CLK 8.12 
3 *49:6 *49:23 3.225 
4 *49:23 *49:29 12.52 
5 *49:29 *304:CLK 10.15 
6 *49:29 *308:CLK 1.6 
7 *49:23 *49:59 8.43 
8 *49:59 *297:CLK 1.6 
9 *49:59 *49:66 4.935 
10 *49:66 *49:70 4.145 
11 *49:70 *301:CLK 4.395 
12 *49:70 *300:CLK 12.87 
13 *49:66 *310:CLK 1.6 
*END

*D_NET *50 0.00864769
*CONN
*I *305:CLK I *D sky130_fd_sc_hd__dfrtp_1
*I *299:CLK I *D sky130_fd_sc_hd__dfrtp_1
*I *307:CLK I *D sky130_fd_sc_hd__dfrtp_1
*I *298:CLK I *D sky130_fd_sc_hd__dfrtp_1
*I *303:CLK I *D sky130_fd_sc_hd__dfrtp_1
*I *306:CLK I *D sky130_fd_sc_hd__dfrtp_1
*I *311:CLK I *D sky130_fd_sc_hd__dfrtp_2
*I *309:CLK I *D sky130_fd_sc_hd__dfrtp_1
*I *314:X O *D sky130_fd_sc_hd__clkbuf_16
*CAP
1 *305:CLK 0.000544926
2 *299:CLK 4.67518e-05
3 *307:CLK 0
4 *298:CLK 4.42605e-05
5 *303:CLK 0.000684543
6 *306:CLK 3.59772e-05
7 *311:CLK 1.58566e-05
8 *309:CLK 0
9 *314:X 0.00023579
10 *50:74 0.000788181
11 *50:60 4.42605e-05
12 *50:58 0.000274255
13 *50:36 0.000754836
14 *50:22 0.000402422
15 *50:14 0.00137237
16 *50:10 0.00126503
17 *298:CLK *298:D 0.000121039
18 *298:CLK *298:RESET_B 2.69153e-05
19 *299:CLK *299:D 7.35729e-05
20 *299:CLK *299:RESET_B 2.75145e-05
21 *303:CLK *303:RESET_B 6.30072e-05
22 *303:CLK *306:D 3.50562e-05
23 *303:CLK *306:RESET_B 2.32341e-05
24 *303:CLK *73:8 4.23878e-05
25 *305:CLK *305:D 4.62262e-05
26 *305:CLK *305:RESET_B 2.35512e-05
27 *305:CLK *307:D 0
28 *311:CLK *309:D 2.86975e-05
29 *50:10 *59:39 0.000101706
30 *50:14 *291:A 3.33763e-05
31 *50:14 *306:D 1.33269e-05
32 *50:14 *73:69 0.000112439
33 *50:22 *306:D 0.000655111
34 *50:22 *309:D 6.83957e-05
35 *50:22 *311:RESET_B 0
36 *50:36 *306:D 1.16854e-05
37 *50:58 *59:39 5.51172e-05
38 *50:74 *299:RESET_B 0.000150184
39 *50:74 *307:D 0
40 *50:74 *59:39 2.3228e-05
41 *291:B *50:14 0.000233604
42 *317:A *50:22 0.000108517
43 *44:12 *50:14 6.03315e-05
*RES
1 *314:X *50:10 7.23 
2 *50:10 *50:14 13.49 
3 *50:14 *50:22 13.24 
4 *50:22 *309:CLK 1.6 
5 *50:22 *311:CLK 2.05 
6 *50:14 *50:36 0.45 
7 *50:36 *306:CLK 2.215 
8 *50:36 *303:CLK 13.985 
9 *50:10 *50:58 1.38 
10 *50:58 *50:60 2 
11 *50:60 *298:CLK 2.74 
12 *50:60 *307:CLK 1.6 
13 *50:58 *50:74 4.185 
14 *50:74 *299:CLK 4.74 
15 *50:74 *305:CLK 11.97 
*END

*D_NET *51 0.00116921
*CONN
*I *303:D I *D sky130_fd_sc_hd__dfrtp_1
*I *320:X O *D sky130_fd_sc_hd__clkbuf_1
*CAP
1 *303:D 0.000541246
2 *320:X 0.000541246
3 *303:D *303:RESET_B 4.77769e-05
4 *303:D *73:8 3.89366e-05
*RES
1 *320:X *303:D 14.16 
*END

*D_NET *52 0.00172777
*CONN
*I *311:D I *D sky130_fd_sc_hd__dfrtp_2
*I *321:X O *D sky130_fd_sc_hd__clkbuf_1
*CAP
1 *311:D 0.000462094
2 *321:X 0.000462094
3 *311:D *309:D 0.000538312
4 *311:D *311:RESET_B 0.000113355
5 *311:D *73:36 0.000151918
*RES
1 *321:X *311:D 17.76 
*END

*D_NET *53 0.000629919
*CONN
*I *330:A I *D sky130_fd_sc_hd__buf_2
*I *301:Q O *D sky130_fd_sc_hd__dfrtp_1
*CAP
1 *330:A 0.000279148
2 *301:Q 0.000279148
3 *330:A *304:D 7.1624e-05
*RES
1 *301:Q *330:A 11.55 
*END

*D_NET *54 0.000299015
*CONN
*I *331:A I *D sky130_fd_sc_hd__clkbuf_4
*I *302:Q O *D sky130_fd_sc_hd__dfrtp_1
*CAP
1 *331:A 0.000146206
2 *302:Q 0.000146206
3 *331:A *302:RESET_B 0
4 *326:A *331:A 6.60261e-06
*RES
1 *302:Q *331:A 9.285 
*END

*D_NET *55 0.0012434
*CONN
*I *332:A I *D sky130_fd_sc_hd__clkbuf_4
*I *297:Q O *D sky130_fd_sc_hd__dfrtp_1
*CAP
1 *332:A 0.000385025
2 *297:Q 0.000385025
3 *332:A *302:D 0.000199409
4 *49:59 *332:A 0.000273938
*RES
1 *297:Q *332:A 14.73 
*END

*D_NET *56 0.000242353
*CONN
*I *333:A I *D sky130_fd_sc_hd__clkbuf_4
*I *298:Q O *D sky130_fd_sc_hd__dfrtp_1
*CAP
1 *333:A 0.000121177
2 *298:Q 0.000121177
3 y_out[1] *333:A 0
*RES
1 *298:Q *333:A 8.775 
*END

*D_NET *57 0.000526926
*CONN
*I *334:A I *D sky130_fd_sc_hd__clkbuf_4
*I *299:Q O *D sky130_fd_sc_hd__dfrtp_1
*CAP
1 *334:A 0.000263463
2 *299:Q 0.000263463
*RES
1 *299:Q *334:A 11.325 
*END

*D_NET *58 0.000470435
*CONN
*I *335:A I *D sky130_fd_sc_hd__clkbuf_4
*I *300:Q O *D sky130_fd_sc_hd__dfrtp_1
*CAP
1 *335:A 0.000169992
2 *300:Q 0.000169992
3 *335:A *283:A 8.64488e-05
4 *283:B *335:A 4.40028e-05
*RES
1 *300:Q *335:A 6.08 
*END

*D_NET *59 0.0147994
*CONN
*I *304:RESET_B I *D sky130_fd_sc_hd__dfrtp_1
*I *303:RESET_B I *D sky130_fd_sc_hd__dfrtp_1
*I *300:RESET_B I *D sky130_fd_sc_hd__dfrtp_1
*I *301:RESET_B I *D sky130_fd_sc_hd__dfrtp_1
*I *310:RESET_B I *D sky130_fd_sc_hd__dfrtp_1
*I *297:RESET_B I *D sky130_fd_sc_hd__dfrtp_1
*I *299:RESET_B I *D sky130_fd_sc_hd__dfrtp_1
*I *298:RESET_B I *D sky130_fd_sc_hd__dfrtp_1
*I *302:RESET_B I *D sky130_fd_sc_hd__dfrtp_1
*I *308:RESET_B I *D sky130_fd_sc_hd__dfrtp_1
*I *315:X O *D sky130_fd_sc_hd__clkbuf_4
*CAP
1 *304:RESET_B 5.00972e-05
2 *303:RESET_B 0.00069622
3 *300:RESET_B 0
4 *301:RESET_B 0
5 *310:RESET_B 6.11948e-06
6 *297:RESET_B 3.80909e-05
7 *299:RESET_B 0.000582939