*SPEF "ieee 1481-1999"
*DESIGN "addsub4_top"
*DATE "11:11:11 Fri 11 11, 1111"
*VENDOR "OpenRCX"
*PROGRAM "Parallel Extraction"
*VERSION "1.0"
*DESIGN_FLOW "NAME_SCOPE LOCAL" "PIN_CAP NONE"
*DIVIDER /
*DELIMITER :
*BUS_DELIMITER []
*T_UNIT 1 NS
*C_UNIT 1 PF
*R_UNIT 1 OHM
*L_UNIT 1 HENRY

*NAME_MAP
*3 a_in[0]
*4 a_in[1]
*5 a_in[2]
*6 a_in[3]
*7 b_in[0]
*8 b_in[1]
*9 b_in[2]
*10 b_in[3]
*11 clk
*12 cout_out
*13 ovf_out
*14 rst_n
*15 sub_in
*16 y_out[0]
*17 y_out[1]
*18 y_out[2]
*19 y_out[3]
*20 _00_
*21 _01_
*22 _02_
*23 _03_
*24 _04_
*25 _05_
*26 _06_
*27 _07_
*28 _08_
*29 _09_
*30 _10_
*31 _11_
*32 _12_
*33 _13_
*34 _14_
*35 _15_
*36 _16_
*37 _17_
*38 _18_
*39 _19_
*40 a_r\[0\]
*41 a_r\[1\]
*42 a_r\[2\]
*43 a_r\[3\]
*44 b_r\[0\]
*45 b_r\[1\]
*46 b_r\[2\]
*47 b_r\[3\]
*48 clknet_0_clk
*49 clknet_1_0__leaf_clk
*50 clknet_1_1__leaf_clk
*51 net1
*52 net10
*53 net11
*54 net12
*55 net13
*56 net14
*57 net15
*58 net16
*59 net17
*60 net18
*61 net19
*62 net2
*63 net20
*64 net21
*65 net3
*66 net4
*67 net5
*68 net6
*69 net7
*70 net8
*71 net9
*72 ovf
*73 sub_r
*74 sum\[0\]
*75 sum\[1\]
*76 sum\[2\]
*77 sum\[3\]
*78 sum\[4\]
*79 FILLER_0_0_26
*80 FILLER_0_0_29
*81 FILLER_0_0_41
*82 FILLER_0_0_49
*83 FILLER_0_0_55
*84 FILLER_0_0_57
*85 FILLER_0_0_69
*86 FILLER_0_0_77
*87 FILLER_0_0_83
*88 FILLER_0_0_85
*89 FILLER_0_0_91
*90 FILLER_0_10_15
*91 FILLER_0_10_27
*92 FILLER_0_10_29
*93 FILLER_0_10_3
*94 FILLER_0_10_57
*95 FILLER_0_10_79
*96 FILLER_0_10_83
*97 FILLER_0_10_85
*98 FILLER_0_10_93
*99 FILLER_0_11_23
*100 FILLER_0_11_49
*101 FILLER_0_11_55
*102 FILLER_0_11_57
*103 FILLER_0_11_80
*104 FILLER_0_11_92
*105 FILLER_0_12_21
*106 FILLER_0_12_27
*107 FILLER_0_12_29
*108 FILLER_0_12_41
*109 FILLER_0_12_53
*110 FILLER_0_12_57
*111 FILLER_0_12_66
*112 FILLER_0_12_78
*113 FILLER_0_12_85
*114 FILLER_0_12_9
*115 FILLER_0_12_91
*116 FILLER_0_13_23
*117 FILLER_0_13_52
*118 FILLER_0_13_57
*119 FILLER_0_13_69
*120 FILLER_0_13_81
*121 FILLER_0_13_93
*122 FILLER_0_14_29
*123 FILLER_0_14_3
*124 FILLER_0_14_7
*125 FILLER_0_14_85
*126 FILLER_0_14_93
*127 FILLER_0_15_12
*128 FILLER_0_15_24
*129 FILLER_0_15_29
*130 FILLER_0_15_34
*131 FILLER_0_15_42
*132 FILLER_0_15_48
*133 FILLER_0_15_57
*134 FILLER_0_15_65
*135 FILLER_0_15_69
*136 FILLER_0_15_81
*137 FILLER_0_15_85
*138 FILLER_0_1_49
*139 FILLER_0_1_55
*140 FILLER_0_1_57
*141 FILLER_0_1_61
*142 FILLER_0_1_82
*143 FILLER_0_1_90
*144 FILLER_0_2_15
*145 FILLER_0_2_27
*146 FILLER_0_2_29
*147 FILLER_0_2_3
*148 FILLER_0_2_41
*149 FILLER_0_2_53
*150 FILLER_0_2_61
*151 FILLER_0_2_85
*152 FILLER_0_2_93
*153 FILLER_0_3_15
*154 FILLER_0_3_27
*155 FILLER_0_3_3
*156 FILLER_0_3_39
*157 FILLER_0_3_51
*158 FILLER_0_3_55
*159 FILLER_0_3_57
*160 FILLER_0_3_69
*161 FILLER_0_3_81
*162 FILLER_0_3_93
*163 FILLER_0_4_15
*164 FILLER_0_4_27
*165 FILLER_0_4_29
*166 FILLER_0_4_3
*167 FILLER_0_4_41
*168 FILLER_0_4_53
*169 FILLER_0_4_68
*170 FILLER_0_4_72
*171 FILLER_0_4_85
*172 FILLER_0_4_93
*173 FILLER_0_5_3
*174 FILLER_0_5_48
*175 FILLER_0_5_57
*176 FILLER_0_5_7
*177 FILLER_0_5_82
*178 FILLER_0_5_94
*179 FILLER_0_6_18
*180 FILLER_0_6_26
*181 FILLER_0_6_35
*182 FILLER_0_6_50
*183 FILLER_0_6_6
*184 FILLER_0_6_62
*185 FILLER_0_6_88
*186 FILLER_0_7_15
*187 FILLER_0_7_27
*188 FILLER_0_7_3
*189 FILLER_0_7_49
*190 FILLER_0_7_55
*191 FILLER_0_7_57
*192 FILLER_0_7_72
*193 FILLER_0_7_82
*194 FILLER_0_7_94
*195 FILLER_0_8_15
*196 FILLER_0_8_27
*197 FILLER_0_8_29
*198 FILLER_0_8_3
*199 FILLER_0_8_37
*200 FILLER_0_8_64
*201 FILLER_0_8_76
*202 FILLER_0_8_85
*203 FILLER_0_8_93
*204 FILLER_0_9_15
*205 FILLER_0_9_3
*206 FILLER_0_9_49
*207 FILLER_0_9_55
*208 FILLER_0_9_57
*209 FILLER_0_9_69
*210 FILLER_0_9_77
*211 FILLER_0_9_87
*212 PHY_0
*213 PHY_1
*214 PHY_10
*215 PHY_11
*216 PHY_12
*217 PHY_13
*218 PHY_14
*219 PHY_15
*220 PHY_16
*221 PHY_17
*222 PHY_18
*223 PHY_19
*224 PHY_2
*225 PHY_20
*226 PHY_21
*227 PHY_22
*228 PHY_23
*229 PHY_24
*230 PHY_25
*231 PHY_26
*232 PHY_27
*233 PHY_28
*234 PHY_29
*235 PHY_3
*236 PHY_30
*237 PHY_31
*238 PHY_4
*239 PHY_5
*240 PHY_6
*241 PHY_7
*242 PHY_8
*243 PHY_9
*244 TAP_32
*245 TAP_33
*246 TAP_34
*247 TAP_35
*248 TAP_36
*249 TAP_37
*250 TAP_38
*251 TAP_39
*252 TAP_40
*253 TAP_41
*254 TAP_42
*255 TAP_43
*256 TAP_44
*257 TAP_45
*258 TAP_46
*259 TAP_47
*260 TAP_48
*261 TAP_49
*262 TAP_50
*263 TAP_51
*264 TAP_52
*265 TAP_53
*266 TAP_54
*267 TAP_55
*268 TAP_56
*269 TAP_57
*270 TAP_58
*271 _20_
*272 _21_
*273 _22_
*274 _23_
*275 _24_
*276 _25_
*277 _26_
*278 _27_
*279 _28_
*280 _29_
*281 _30_
*282 _31_
*283 _32_
*284 _33_
*285 _34_
*286 _35_
*287 _36_
*288 _37_
*289 _38_
*290 _39_
*291 _40_
*292 _41_
*293 _42_
*294 _43_
*295 _44_
*296 _45_
*297 _46_
*298 _47_
*299 _48_
*300 _49_
*301 _50_
*302 _51_
*303 _52_
*304 _53_
*305 _54_
*306 _55_
*307 _56_
*308 _57_
*309 _58_
*310 _59_
*311 _60_
*312 clkbuf_0_clk
*313 clkbuf_1_0__f_clk
*314 clkbuf_1_1__f_clk
*315 fanout17
*316 fanout18
*317 hold1
*318 hold2
*319 hold3
*320 input1
*321 input10
*322 input2
*323 input3
*324 input4
*325 input5
*326 input6
*327 input7
*328 input8
*329 input9
*330 output11
*331 output12
*332 output13
*333 output14
*334 output15
*335 output16

*PORTS
a_in[0] I
a_in[1] I
a_in[2] I
a_in[3] I
b_in[0] I
b_in[1] I
b_in[2] I
b_in[3] I
clk I
cout_out O
ovf_out O
rst_n I
sub_in I
y_out[0] O
y_out[1] O
y_out[2] O
y_out[3] O

*D_NET *3 0.000491398
*CONN
*P a_in[0] I
*I *320:A I *D sky130_fd_sc_hd__clkbuf_1
*CAP
1 a_in[0] 0.000245699
2 *320:A 0.000245699
*RES
1 a_in[0] *320:A 19.6024 
*END

*D_NET *4 0.00135358
*CONN
*P a_in[1] I
*I *322:A I *D sky130_fd_sc_hd__clkbuf_1
*CAP
1 a_in[1] 0.000676791
2 *322:A 0.000676791
*RES
1 a_in[1] *322:A 26.7643 
*END

*D_NET *5 0.0011568
*CONN
*P a_in[2] I
*I *323:A I *D sky130_fd_sc_hd__clkbuf_1
*CAP
1 a_in[2] 0.000578402
2 *323:A 0.000578402
3 *323:A y_out[2] 0
*RES
1 a_in[2] *323:A 22.8053 
*END

*D_NET *6 0.00112588
*CONN
*P a_in[3] I
*I *324:A I *D sky130_fd_sc_hd__clkbuf_1
*CAP
1 a_in[3] 0.000552457
2 *324:A 0.000552457
3 *324:A *306:D 2.09634e-05
*RES
1 a_in[3] *324:A 24.6036 
*END

*D_NET *7 0.00119355
*CONN
*P b_in[0] I
*I *325:A I *D sky130_fd_sc_hd__clkbuf_1
*CAP
1 b_in[0] 0.000524959
2 *325:A 0.000524959
3 *325:A *42:14 0.000143633
*RES
1 b_in[0] *325:A 24.4786 
*END

*D_NET *8 0.00328629
*CONN
*P b_in[1] I
*I *326:A I *D sky130_fd_sc_hd__clkbuf_1
*CAP
1 b_in[1] 0.0014979
2 *326:A 0.0014979
3 *326:A ovf_out 0
4 *326:A *331:A 6.78055e-06
5 *326:A *72:18 0.000283719
*RES
1 b_in[1] *326:A 36.7464 
*END

*D_NET *9 0.00139641
*CONN
*P b_in[2] I
*I *327:A I *D sky130_fd_sc_hd__clkbuf_1
*CAP
1 b_in[2] 0.000698207
2 *327:A 0.000698207
3 *327:A *321:A 0
*RES
1 b_in[2] *327:A 23.8046 
*END

*D_NET *10 0.000941953
*CONN
*P b_in[3] I
*I *328:A I *D sky130_fd_sc_hd__clkbuf_1
*CAP
1 b_in[3] 0.000468323
2 *328:A 0.000468323
3 *328:A *62:16 5.30637e-06
*RES
1 b_in[3] *328:A 22.6571 
*END

*D_NET *11 0.00527341
*CONN
*P clk I
*I *312:A I *D sky130_fd_sc_hd__clkbuf_16
*CAP
1 clk 0.0021282
2 *312:A 0
3 *11:17 0.0021282
4 *11:17 *274:B 0.000234033
5 *11:17 *292:B_N 9.83442e-05
6 *11:17 *293:A 5.08831e-05
7 *11:17 *302:CLK 3.85567e-05
8 *11:17 *302:RESET_B 0.000215766
9 *11:17 *308:D 0
10 *11:17 *313:A 5.16955e-05
11 *11:17 *45:10 9.96553e-05
12 *11:17 *48:16 9.91943e-05
13 *11:17 *59:14 2.71192e-05
14 *11:17 *59:73 0
15 *11:17 *73:69 0.000101771
*RES
1 clk *11:17 43.985 
2 *11:17 *312:A 9.3 
*END

*D_NET *12 0.00059054
*CONN
*P cout_out O
*I *330:X O *D sky130_fd_sc_hd__buf_2
*CAP
1 cout_out 0.00029527
2 *330:X 0.00029527
*RES
1 *330:X cout_out 18.1949 
*END

*D_NET *13 0.000691208
*CONN
*P ovf_out O
*I *331:X O *D sky130_fd_sc_hd__clkbuf_4
*CAP
1 ovf_out 0.000345604
2 *331:X 0.000345604
3 *326:A ovf_out 0
*RES
1 *331:X ovf_out 20.7625 
*END

*D_NET *14 0.000547918
*CONN
*P rst_n I
*I *329:A I *D sky130_fd_sc_hd__buf_1
*CAP
1 rst_n 0.000273959
2 *329:A 0.000273959
*RES
1 rst_n *329:A 18.73 
*END

*D_NET *15 0.00115353
*CONN
*P sub_in I
*I *321:A I *D sky130_fd_sc_hd__clkbuf_1
*CAP
1 sub_in 0.000576766
2 *321:A 0.000576766
3 *327:A *321:A 0
*RES
1 sub_in *321:A 24.8536 
*END

*D_NET *16 0.000913715
*CONN
*P y_out[0] O
*I *332:X O *D sky130_fd_sc_hd__clkbuf_4
*CAP
1 y_out[0] 0.000448075
2 *332:X 0.000448075
3 y_out[0] *72:18 1.75642e-05
*RES
1 *332:X y_out[0] 22.3 
*END

*D_NET *17 0.000745289
*CONN
*P y_out[1] O
*I *333:X O *D sky130_fd_sc_hd__clkbuf_4
*CAP
1 y_out[1] 0.000372645
2 *333:X 0.000372645
3 y_out[1] *333:A 0
*RES
1 *333:X y_out[1] 21.0661 
*END

*D_NET *18 0.00114508
*CONN
*P y_out[2] O
*I *334:X O *D sky130_fd_sc_hd__clkbuf_4
*CAP
1 y_out[2] 0.000572538
2 *334:X 0.000572538
3 *323:A y_out[2] 0
*RES
1 *334:X y_out[2] 23.8714 
*END

*D_NET *19 0.000629041
*CONN
*P y_out[3] O
*I *335:X O *D sky130_fd_sc_hd__clkbuf_4
*CAP
1 y_out[3] 0.000314521
2 *335:X 0.000314521
*RES
1 *335:X y_out[3] 19.6745 
*END

*D_NET *20 0.00186128
*CONN
*I *280:B I *D sky130_fd_sc_hd__and3_1
*I *273:A1 I *D sky130_fd_sc_hd__a21o_1
*I *271:X O *D sky130_fd_sc_hd__or2_1
*CAP
1 *280:B 0.000352787
2 *273:A1 0.000100665
3 *271:X 0
4 *20:4 0.000453451
5 *273:A1 *273:A2 0.000135111
6 *273:A1 *280:A 2.15869e-05
7 *273:A1 *42:14 1.8461e-05
8 *280:B *271:B 0.000161582
9 *280:B *273:A2 0.00029504
10 *280:B *280:A 8.91963e-06
11 *280:B *280:C 7.9893e-05
12 *280:B *306:D 0
13 *280:B *73:57 0.000233779
*RES
1 *271:X *20:4 9.3 
2 *20:4 *273:A1 11.8179 
3 *20:4 *280:B 25.9964 
*END

*D_NET *21 0.00207212
*CONN
*I *273:A2 I *D sky130_fd_sc_hd__a21o_1
*I *280:C I *D sky130_fd_sc_hd__and3_1
*I *272:Y O *D sky130_fd_sc_hd__nand2_1
*CAP
1 *273:A2 0.000220462
2 *280:C 5.46942e-05
3 *272:Y 0.000253788
4 *21:8 0.000528945
5 *273:A2 *280:A 0.000289947
6 *280:C *280:A 3.54498e-05
7 *21:8 *309:RESET_B 0.000178785
8 *273:A1 *273:A2 0.000135111
9 *280:B *273:A2 0.00029504
10 *280:B *280:C 7.9893e-05
*RES
1 *272:Y *21:8 16.8 
2 *21:8 *280:C 15.0321 
3 *21:8 *273:A2 20.925 
*END

*D_NET *22 0.00182646
*CONN
*I *281:A1 I *D sky130_fd_sc_hd__a21o_1
*I *294:B_N I *D sky130_fd_sc_hd__or2b_1
*I *273:X O *D sky130_fd_sc_hd__a21o_1
*CAP
1 *281:A1 0
2 *294:B_N 0.000196976
3 *273:X 0.000291738
4 *22:14 0.000488714
5 *294:B_N *281:A2 6.05161e-06
6 *294:B_N *281:B1 0.000324785
7 *294:B_N *295:A 0.000184375
8 *294:B_N *28:20 4.4873e-05
9 *294:B_N *29:6 9.35114e-06
10 *22:14 *281:A2 1.46148e-05
11 *22:14 *295:B 7.24209e-05
12 *22:14 *299:D 7.89362e-05
13 *22:14 *307:D 6.29506e-05
14 *22:14 *42:14 5.06736e-05
*RES
1 *273:X *22:14 23.6571 
2 *22:14 *294:B_N 14.3893 
3 *22:14 *281:A1 9.3 
*END

*D_NET *23 0.000916146
*CONN
*I *276:A1 I *D sky130_fd_sc_hd__a21o_1
*I *278:B I *D sky130_fd_sc_hd__and3_1
*I *274:X O *D sky130_fd_sc_hd__or2_1
*CAP
1 *276:A1 0
2 *278:B 0.000194144
3 *274:X 8.93687e-05
4 *23:6 0.000283513
5 *278:B *278:A 9.85187e-06
6 *278:B *278:C 4.93544e-05
7 *278:B *24:14 5.96985e-05
8 *23:6 *275:A 9.18347e-05
9 *23:6 *25:10 0.000138381
*RES
1 *274:X *23:6 11.4786 
2 *23:6 *278:B 12.4071 
3 *23:6 *276:A1 9.3 
*END

*D_NET *24 0.000847511
*CONN
*I *278:C I *D sky130_fd_sc_hd__and3_1
*I *276:A2 I *D sky130_fd_sc_hd__a21o_1
*I *275:Y O *D sky130_fd_sc_hd__nand2_1
*CAP
1 *278:C 7.8739e-05
2 *276:A2 0
3 *275:Y 0.000229737
4 *24:14 0.000308476
5 *278:C *278:A 6.14791e-05
6 *24:14 *275:A 5.107e-05
7 *24:14 *297:D 4.95491e-06
8 *24:14 *59:69 4.00276e-06
9 *278:B *278:C 4.93544e-05
10 *278:B *24:14 5.96985e-05
*RES
1 *275:Y *24:14 21.7286 
2 *24:14 *276:A2 9.3 
3 *24:14 *278:C 11.2821 
*END

*D_NET *25 0.00139019
*CONN
*I *279:A1 I *D sky130_fd_sc_hd__a21o_1
*I *292:B_N I *D sky130_fd_sc_hd__or2b_1
*I *276:X O *D sky130_fd_sc_hd__a21o_1
*CAP
1 *279:A1 0.000211262
2 *292:B_N 2.16337e-05
3 *276:X 0.000185527
4 *25:10 0.000418423
5 *279:A1 *279:A2 5.46532e-05
6 *279:A1 *293:A 0.000124019
7 *279:A1 *293:B 1.19813e-05
8 *279:A1 *316:A 6.75347e-06
9 *279:A1 *26:12 3.49456e-06
10 *292:B_N *48:16 5.20751e-05
11 *25:10 *278:A 4.27842e-06
12 *25:10 *316:A 5.93614e-05
13 *11:17 *292:B_N 9.83442e-05
14 *23:6 *25:10 0.000138381
*RES
1 *276:X *25:10 16.8 
2 *25:10 *292:B_N 14.7464 
3 *25:10 *279:A1 18.2643 
*END

*D_NET *26 0.000399751
*CONN
*I *279:A2 I *D sky130_fd_sc_hd__a21o_1
*I *293:B I *D sky130_fd_sc_hd__xnor2_1
*I *277:X O *D sky130_fd_sc_hd__mux2_1
*CAP
1 *279:A2 3.88413e-05
2 *293:B 1.62117e-05
3 *277:X 9.05406e-05
4 *26:12 0.000145593
5 *26:12 *316:A 3.84349e-05
6 *279:A1 *279:A2 5.46532e-05
7 *279:A1 *293:B 1.19813e-05
8 *279:A1 *26:12 3.49456e-06
*RES
1 *277:X *26:12 20.0679 
2 *26:12 *293:B 9.72857 
3 *26:12 *279:A2 10.2464 
*END

*D_NET *27 0.00138195
*CONN
*I *279:B1 I *D sky130_fd_sc_hd__a21o_1
*I *292:A I *D sky130_fd_sc_hd__or2b_1
*I *278:X O *D sky130_fd_sc_hd__and3_1
*CAP
1 *279:B1 0.000122044
2 *292:A 0.000175344
3 *278:X 0.000144111
4 *27:8 0.000441499
5 *279:B1 *318:A 7.5802e-05
6 *279:B1 *28:20 5.23735e-05
7 *292:A *48:16 0.000272055
8 *27:8 *318:A 9.87199e-05
*RES
1 *278:X *27:8 16.3536 
2 *27:8 *292:A 16.3893 
3 *27:8 *279:B1 16.6929 
*END

*D_NET *28 0.0031026
*CONN
*I *295:B I *D sky130_fd_sc_hd__xnor2_1
*I *281:A2 I *D sky130_fd_sc_hd__a21o_1
*I *279:X O *D sky130_fd_sc_hd__a21o_1
*CAP
1 *295:B 0.000142894
2 *281:A2 5.40309e-05
3 *279:X 0.00071972
4 *28:20 0.000916645
5 *295:B *295:A 0.000123359
6 *295:B *299:D 6.94441e-06
7 *295:B *307:D 0
8 *295:B *60:22 2.00123e-05
9 *28:20 *272:B 0
10 *28:20 *281:B1 0.000331208
11 *28:20 *30:18 0
12 *28:20 *44:12 5.93614e-05
13 *28:20 *73:57 0.000538095
14 *279:B1 *28:20 5.23735e-05
15 *294:B_N *281:A2 6.05161e-06
16 *294:B_N *28:20 4.4873e-05
17 *22:14 *281:A2 1.46148e-05
18 *22:14 *295:B 7.24209e-05
*RES
1 *279:X *28:20 32.7821 
2 *28:20 *281:A2 10.2643 
3 *28:20 *295:B 21.1571 
*END

*D_NET *29 0.00102514
*CONN
*I *281:B1 I *D sky130_fd_sc_hd__a21o_1
*I *294:A I *D sky130_fd_sc_hd__or2b_1
*I *280:X O *D sky130_fd_sc_hd__and3_1
*CAP
1 *281:B1 9.33239e-05
2 *294:A 0
3 *280:X 8.65722e-05
4 *29:6 0.000179896
5 *294:B_N *281:B1 0.000324785
6 *294:B_N *29:6 9.35114e-06
7 *28:20 *281:B1 0.000331208
*RES
1 *280:X *29:6 10.2464 
2 *29:6 *294:A 9.3 
3 *29:6 *281:B1 13.3357 
*END

*D_NET *30 0.00598368
*CONN
*I *296:A1 I *D sky130_fd_sc_hd__o21a_1
*I *289:A1 I *D sky130_fd_sc_hd__o22a_1
*I *290:A1 I *D sky130_fd_sc_hd__o21a_1
*I *288:A I *D sky130_fd_sc_hd__nand2_1
*I *281:X O *D sky130_fd_sc_hd__a21o_1
*CAP
1 *296:A1 8.42761e-05
2 *289:A1 0
3 *290:A1 2.66016e-05
4 *288:A 9.23712e-05
5 *281:X 0.00170634
6 *30:44 0.000160236
7 *30:31 0.000102562
8 *30:20 0.000217903
9 *30:18 0.00183187
10 *288:A *300:CLK 9.55723e-05
11 *288:A *37:10 0.000121891
12 *290:A1 *290:B1 4.97967e-05
13 *290:A1 *62:16 9.67754e-05
14 *296:A1 *289:A2 4.17433e-05
15 *296:A1 *296:A2 5.66971e-05
16 *296:A1 *33:29 0.000136382
17 *296:A1 *62:16 0.000197953
18 *30:18 *291:A 7.07155e-06
19 *30:18 *306:RESET_B 0.000150769
20 *30:18 *311:RESET_B 9.22338e-05
21 *30:18 *317:A 0.000117404
22 *30:18 *60:22 7.85137e-05
23 *30:20 *300:CLK 5.3731e-05
24 *30:20 *300:D 7.74068e-05
25 *30:20 *37:10 3.29297e-05
26 *30:44 *289:A2 5.65955e-05
27 *30:44 *290:B1 2.59355e-05
28 *30:44 *33:29 0.000131407
29 *30:44 *62:16 0.000140707
30 *28:20 *30:18 0
*RES
1 *281:X *30:18 49.5054 
2 *30:18 *30:20 3.00893 
3 *30:20 *288:A 16.3536 
4 *30:20 *30:31 4.5 
5 *30:31 *290:A1 10.2464 
6 *30:31 *30:44 2.73214 
7 *30:44 *289:A1 9.3 
8 *30:44 *296:A1 12.4429 
*END

*D_NET *31 0.000968896
*CONN
*I *285:A1 I *D sky130_fd_sc_hd__a21oi_1
*I *284:B I *D sky130_fd_sc_hd__and3_1
*I *282:X O *D sky130_fd_sc_hd__or2_1
*CAP
1 *285:A1 0.000120611
2 *284:B 7.29024e-05
3 *282:X 0.000101681
4 *31:10 0.000295194
5 *284:B *284:C 3.0132e-05
6 *285:A1 *284:C 1.58163e-05
7 *285:A1 *32:14 5.99191e-05
8 *285:A1 *34:8 3.06878e-06
9 *31:10 *303:RESET_B 3.48742e-05
10 *31:10 *32:14 7.74068e-05
11 *31:10 *33:23 9.06097e-05
12 *31:10 *59:102 6.66813e-05
*RES
1 *282:X *31:10 21.7643 
2 *31:10 *284:B 10.2464 
3 *31:10 *285:A1 11.2821 
*END

*D_NET *32 0.00133035
*CONN
*I *285:A2 I *D sky130_fd_sc_hd__a21oi_1
*I *284:C I *D sky130_fd_sc_hd__and3_1
*I *283:Y O *D sky130_fd_sc_hd__nand2_1
*CAP
1 *285:A2 0
2 *284:C 5.66736e-05
3 *283:Y 0.000345328
4 *32:14 0.000402002
5 *284:C *34:8 0.000123938
6 *32:14 *283:B 0.000119475
7 *32:14 *303:RESET_B 9.96553e-05
8 *284:B *284:C 3.0132e-05
9 *285:A1 *284:C 1.58163e-05
10 *285:A1 *32:14 5.99191e-05
11 *31:10 *32:14 7.74068e-05
*RES
1 *283:Y *32:14 23.7821 
2 *32:14 *284:C 11.2821 
3 *32:14 *285:A2 9.3 
*END

*D_NET *33 0.00266108
*CONN
*I *296:A2 I *D sky130_fd_sc_hd__o21a_1
*I *289:B2 I *D sky130_fd_sc_hd__o22a_1
*I *290:A2 I *D sky130_fd_sc_hd__o21a_1
*I *286:A I *D sky130_fd_sc_hd__nor2_1
*I *284:X O *D sky130_fd_sc_hd__and3_1
*CAP
1 *296:A2 1.83662e-05
2 *289:B2 0
3 *290:A2 0.0002334
4 *286:A 0.000129878
5 *284:X 0
6 *33:29 0.00042326
7 *33:23 0.000394194
8 *33:4 0.000315845
9 *286:A *286:B 9.84174e-05
10 *290:A2 *37:10 7.70035e-05
11 *290:A2 *62:16 0.000220766
12 *33:23 *287:A 0.000281488
13 *33:23 *296:B1 1.00887e-05
14 *33:23 *34:8 8.25843e-06
15 *33:29 *290:B1 3.50166e-05
16 *296:A1 *296:A2 5.66971e-05
17 *296:A1 *33:29 0.000136382
18 *30:44 *33:29 0.000131407
19 *31:10 *33:23 9.06097e-05
*RES
1 *284:X *33:4 9.3 
2 *33:4 *286:A 11.925 
3 *33:4 *33:23 13.9107 
4 *33:23 *33:29 3.85714 
5 *33:29 *290:A2 21.5143 
6 *33:29 *289:B2 9.3 
7 *33:23 *296:A2 9.83571 
*END

*D_NET *34 0.00239108
*CONN
*I *287:A I *D sky130_fd_sc_hd__inv_2
*I *286:B I *D sky130_fd_sc_hd__nor2_1
*I *285:Y O *D sky130_fd_sc_hd__a21oi_1
*CAP
1 *287:A 0.000358767
2 *286:B 3.6977e-05
3 *285:Y 0.000268982
4 *34:8 0.000664726
5 *287:A *289:A2 0.000238185
6 *287:A *296:B1 0.000160548
7 *287:A *301:D 0.000147725
8 *284:C *34:8 0.000123938
9 *285:A1 *34:8 3.06878e-06
10 *286:A *286:B 9.84174e-05
11 *33:23 *287:A 0.000281488
12 *33:23 *34:8 8.25843e-06
*RES
1 *285:Y *34:8 13.0009 
2 *34:8 *286:B 10.2464 
3 *34:8 *287:A 27.2107 
*END

*D_NET *35 0.000850741
*CONN
*I *289:A2 I *D sky130_fd_sc_hd__o22a_1
*I *286:Y O *D sky130_fd_sc_hd__nor2_1
*CAP
1 *289:A2 0.000207116
2 *286:Y 0.000207116
3 *289:A2 *62:16 9.99853e-05
4 *287:A *289:A2 0.000238185
5 *296:A1 *289:A2 4.17433e-05
6 *30:44 *289:A2 5.65955e-05
*RES
1 *286:Y *289:A2 32.9214 
*END

*D_NET *36 0.000857027
*CONN
*I *296:B1 I *D sky130_fd_sc_hd__o21a_1
*I *288:B I *D sky130_fd_sc_hd__nand2_1
*I *287:Y O *D sky130_fd_sc_hd__inv_2
*CAP
1 *296:B1 0.000210013
2 *288:B 0.000133182
3 *287:Y 0
4 *36:4 0.000343195
5 *287:A *296:B1 0.000160548
6 *33:23 *296:B1 1.00887e-05
*RES
1 *287:Y *36:4 9.3 
2 *36:4 *288:B 11.6929 
3 *36:4 *296:B1 21.6036 
*END

*D_NET *37 0.000919535
*CONN
*I *290:B1 I *D sky130_fd_sc_hd__o21a_1
*I *289:B1 I *D sky130_fd_sc_hd__o22a_1
*I *288:Y O *D sky130_fd_sc_hd__nand2_1
*CAP
1 *290:B1 0.000169102
2 *289:B1 0
3 *288:Y 7.86262e-05
4 *37:10 0.000247728
5 *290:B1 *62:16 8.15061e-05
6 *288:A *37:10 0.000121891
7 *290:A1 *290:B1 4.97967e-05
8 *290:A2 *37:10 7.70035e-05
9 *30:20 *37:10 3.29297e-05
10 *30:44 *290:B1 2.59355e-05
11 *33:29 *290:B1 3.50166e-05
*RES
1 *288:Y *37:10 20.2464 
2 *37:10 *289:B1 9.3 
3 *37:10 *290:B1 12.7464 
*END

*D_NET *38 0.000733513
*CONN
*I *293:A I *D sky130_fd_sc_hd__xnor2_1
*I *292:X O *D sky130_fd_sc_hd__or2b_1
*CAP
1 *293:A 0.00013317
2 *292:X 0.00013317
3 *293:A *316:A 0.000196458
4 *293:A *48:16 9.58126e-05
5 *279:A1 *293:A 0.000124019
6 *11:17 *293:A 5.08831e-05
*RES
1 *292:X *293:A 31.1 
*END

*D_NET *39 0.000723629
*CONN
*I *295:A I *D sky130_fd_sc_hd__xnor2_1
*I *294:X O *D sky130_fd_sc_hd__or2b_1
*CAP
1 *295:A 0.000184337
2 *294:X 0.000184337
3 *295:A *60:22 4.72217e-05
4 *294:B_N *295:A 0.000184375
5 *295:B *295:A 0.000123359
*RES
1 *294:X *295:A 31.0107 
*END

*D_NET *40 0.00204151
*CONN
*I *317:A I *D sky130_fd_sc_hd__dlygate4sd3_1
*I *277:A1 I *D sky130_fd_sc_hd__mux2_1
*I *303:Q O *D sky130_fd_sc_hd__dfrtp_1
*CAP
1 *317:A 0.000204394
2 *277:A1 0.000569649
3 *303:Q 0
4 *40:4 0.000774043
5 *277:A1 *291:B 0.00011134
6 *277:A1 *318:A 1.6815e-05
7 *277:A1 *44:12 5.33005e-05
8 *277:A1 *60:40 3.05265e-05
9 *277:A1 *73:57 5.33005e-05
10 *317:A *50:22 0.000110739
11 *30:18 *317:A 0.000117404
*RES
1 *303:Q *40:4 9.3 
2 *40:4 *277:A1 26.675 
3 *40:4 *317:A 22.925 
*END

*D_NET *41 0.00234535
*CONN
*I *278:A I *D sky130_fd_sc_hd__and3_1
*I *276:B1 I *D sky130_fd_sc_hd__a21o_1
*I *304:Q O *D sky130_fd_sc_hd__dfrtp_1
*CAP
1 *278:A 0.000217651
2 *276:B1 0
3 *304:Q 0.000424084
4 *41:10 0.000641736
5 *278:A *316:A 1.16501e-05
6 *278:A *318:A 0
7 *41:10 *275:A 0.000148514
8 *41:10 *304:CLK 0.000389947
9 *41:10 *304:RESET_B 2.48016e-05
10 *41:10 *316:A 0.000149235
11 *41:10 *45:10 6.03126e-05
12 *41:10 *59:14 5.4959e-05
13 *41:10 *59:69 9.10894e-05
14 *41:10 *59:73 5.5764e-05
15 *278:B *278:A 9.85187e-06
16 *278:C *278:A 6.14791e-05
17 *25:10 *278:A 4.27842e-06
*RES
1 *304:Q *41:10 24.1393 
2 *41:10 *276:B1 13.8 
3 *41:10 *278:A 16.9786 
*END

*D_NET *42 0.00242163
*CONN
*I *280:A I *D sky130_fd_sc_hd__and3_1
*I *273:B1 I *D sky130_fd_sc_hd__a21o_1
*I *305:Q O *D sky130_fd_sc_hd__dfrtp_1
*CAP
1 *280:A 0.000570713
2 *273:B1 0
3 *305:Q 0.000355769
4 *42:14 0.000926482
5 *280:A *306:D 0
6 *273:A1 *280:A 2.15869e-05
7 *273:A1 *42:14 1.8461e-05
8 *273:A2 *280:A 0.000289947
9 *280:B *280:A 8.91963e-06
10 *280:C *280:A 3.54498e-05
11 *325:A *42:14 0.000143633
12 *22:14 *42:14 5.06736e-05
*RES
1 *305:Q *42:14 25.0143 
2 *42:14 *273:B1 9.3 
3 *42:14 *280:A 29.3 
*END

*D_NET *43 0.00113652
*CONN
*I *319:A I *D sky130_fd_sc_hd__dlygate4sd3_1
*I *284:A I *D sky130_fd_sc_hd__and3_1
*I *306:Q O *D sky130_fd_sc_hd__dfrtp_1
*CAP
1 *319:A 4.26984e-05
2 *284:A 0.000222112
3 *306:Q 6.67077e-05
4 *43:8 0.000331518
5 *284:A *303:RESET_B 0.000347205
6 *43:8 *303:RESET_B 0.000126278
*RES
1 *306:Q *43:8 15.4429 
2 *43:8 *284:A 19.1393 
3 *43:8 *319:A 14.3357 
*END

*D_NET *44 0.00105321
*CONN
*I *291:B I *D sky130_fd_sc_hd__xor2_1
*I *277:S I *D sky130_fd_sc_hd__mux2_1
*I *307:Q O *D sky130_fd_sc_hd__dfrtp_1
*CAP
1 *291:B 9.51183e-05
2 *277:S 0
3 *307:Q 0.000126279
4 *44:12 0.000221398
5 *291:B *50:14 0.000269747
6 *44:12 *50:14 6.34436e-05
7 *44:12 *73:57 2.2351e-05
8 *44:12 *73:69 3.08664e-05
9 *277:A1 *291:B 0.00011134
10 *277:A1 *44:12 5.33005e-05
11 *28:20 *44:12 5.93614e-05
*RES
1 *307:Q *44:12 21.3 
2 *44:12 *277:S 9.3 
3 *44:12 *291:B 12.7464 
*END

*D_NET *45 0.00359213
*CONN
*I *274:B I *D sky130_fd_sc_hd__or2_1
*I *275:B I *D sky130_fd_sc_hd__nand2_1
*I *308:Q O *D sky130_fd_sc_hd__dfrtp_1
*CAP
1 *274:B 0.00018214
2 *275:B 6.27387e-05
3 *308:Q 0.000923759
4 *45:10 0.00116864
5 *274:B *73:69 1.24368e-05
6 *275:B *275:A 5.38444e-06
7 *275:B *316:A 0.000123068
8 *275:B *59:69 0.000228514
9 *45:10 *308:RESET_B 0.000177338
10 *45:10 *59:14 0.000314114
11 *11:17 *274:B 0.000234033
12 *11:17 *45:10 9.96553e-05
13 *41:10 *45:10 6.03126e-05
*RES
1 *308:Q *45:10 25.9429 
2 *45:10 *275:B 16.4071 
3 *45:10 *274:B 17.4964 
*END

*D_NET *46 0.000879903
*CONN
*I *271:A I *D sky130_fd_sc_hd__or2_1
*I *272:A I *D sky130_fd_sc_hd__nand2_1
*I *309:Q O *D sky130_fd_sc_hd__dfrtp_1
*CAP
1 *271:A 0.000103616
2 *272:A 7.71234e-05
3 *309:Q 7.02406e-05
4 *46:8 0.00025098
5 *271:A *271:B 6.93944e-05
6 *272:A *271:B 2.93215e-05
7 *272:A *272:B 0.000107449
8 *272:A *309:RESET_B 0.000143375
9 *46:8 *272:B 2.84026e-05
*RES
1 *309:Q *46:8 14.7464 
2 *46:8 *272:A 16.3179 
3 *46:8 *271:A 15.7464 
*END

*D_NET *47 0.0024294
*CONN
*I *283:B I *D sky130_fd_sc_hd__nand2_1
*I *282:B I *D sky130_fd_sc_hd__or2_1
*I *310:Q O *D sky130_fd_sc_hd__dfrtp_1
*CAP
1 *283:B 0.000168808
2 *282:B 0
3 *310:Q 0.000222347
4 *47:8 0.000391154
5 *283:B *282:A 0.00015078
6 *283:B *283:A 0.000141813
7 *283:B *303:RESET_B 1.90223e-05
8 *283:B *335:A 4.73286e-05
9 *283:B *59:102 8.49275e-05
10 *283:B *73:8 2.28343e-05
11 *47:8 *59:95 6.45442e-05
12 *47:8 *59:102 0.000320535
13 *47:8 *62:16 0.00067583
14 *32:14 *283:B 0.000119475
*RES
1 *310:Q *47:8 23.0321 
2 *47:8 *282:B 13.8 
3 *47:8 *283:B 19.3714 
*END

*D_NET *48 0.00616468
*CONN
*I *314:A I *D sky130_fd_sc_hd__clkbuf_16
*I *313:A I *D sky130_fd_sc_hd__clkbuf_16
*I *312:X O *D sky130_fd_sc_hd__clkbuf_16
*CAP
1 *314:A 0.00011949
2 *313:A 0.00172564
3 *312:X 0.000684396
4 *48:16 0.00252953
5 *313:A *49:29 0.000328922
6 *314:A *298:D 4.82947e-05
7 *314:A *73:69 0.000136967
8 *48:16 *73:69 2.06112e-05
9 *292:A *48:16 0.000272055
10 *292:B_N *48:16 5.20751e-05
11 *293:A *48:16 9.58126e-05
12 *11:17 *313:A 5.16955e-05
13 *11:17 *48:16 9.91943e-05
*RES
1 *312:X *48:16 26.6839 
2 *48:16 *313:A 34.5083 
3 *48:16 *314:A 16.5411 
*END

*D_NET *49 0.00876052
*CONN
*I *310:CLK I *D sky130_fd_sc_hd__dfrtp_1
*I *300:CLK I *D sky130_fd_sc_hd__dfrtp_1
*I *301:CLK I *D sky130_fd_sc_hd__dfrtp_1
*I *297:CLK I *D sky130_fd_sc_hd__dfrtp_1
*I *308:CLK I *D sky130_fd_sc_hd__dfrtp_1
*I *304:CLK I *D sky130_fd_sc_hd__dfrtp_1
*I *302:CLK I *D sky130_fd_sc_hd__dfrtp_1
*I *313:X O *D sky130_fd_sc_hd__clkbuf_16
*CAP
1 *310:CLK 0
2 *300:CLK 0.00057985
3 *301:CLK 6.13274e-05
4 *297:CLK 0
5 *308:CLK 0
6 *304:CLK 0.000653329
7 *302:CLK 0.000149424
8 *313:X 0.000199183
9 *49:70 0.00079576
10 *49:66 0.000431059
11 *49:59 0.000956652
12 *49:29 0.00103292
13 *49:23 0.00130992
14 *49:6 0.000598757
15 *300:CLK *300:D 8.45653e-05
16 *302:CLK *72:18 7.86973e-05
17 *304:CLK *304:D 5.0224e-05
18 *304:CLK *304:RESET_B 9.44309e-06
19 *304:CLK *59:14 1.35553e-05
20 *49:29 *308:D 0.00026962
21 *49:59 *297:D 1.50319e-05
22 *49:59 *297:RESET_B 1.34278e-05
23 *49:59 *332:A 0.000303756
24 *49:59 *59:85 2.30338e-05
25 *49:66 *59:85 0.000224252
26 *288:A *300:CLK 9.55723e-05
27 *313:A *49:29 0.000328922
28 *11:17 *302:CLK 3.85567e-05
29 *30:20 *300:CLK 5.3731e-05
30 *41:10 *304:CLK 0.000389947
*RES
1 *313:X *49:6 11.4786 
2 *49:6 *302:CLK 21.3 
3 *49:6 *49:23 3.83929 
4 *49:23 *49:29 19.1429 
5 *49:29 *304:CLK 19.4786 
6 *49:29 *308:CLK 9.3 
7 *49:23 *49:59 10.0357 
8 *49:59 *297:CLK 9.3 
9 *49:59 *49:66 5.875 
10 *49:66 *49:70 7.05357 
11 *49:70 *301:CLK 14.7464 
12 *49:70 *300:CLK 24.8357 
13 *49:66 *310:CLK 9.3 
*END

*D_NET *50 0.00961823
*CONN
*I *305:CLK I *D sky130_fd_sc_hd__dfrtp_1
*I *299:CLK I *D sky130_fd_sc_hd__dfrtp_1
*I *307:CLK I *D sky130_fd_sc_hd__dfrtp_1
*I *298:CLK I *D sky130_fd_sc_hd__dfrtp_1
*I *303:CLK I *D sky130_fd_sc_hd__dfrtp_1
*I *306:CLK I *D sky130_fd_sc_hd__dfrtp_1
*I *311:CLK I *D sky130_fd_sc_hd__dfrtp_2
*I *309:CLK I *D sky130_fd_sc_hd__dfrtp_1
*I *314:X O *D sky130_fd_sc_hd__clkbuf_16
*CAP
1 *305:CLK 0.00059108
2 *299:CLK 5.31807e-05
3 *307:CLK 0
4 *298:CLK 5.02866e-05
5 *303:CLK 0.00078125
6 *306:CLK 3.83336e-05
7 *311:CLK 1.68284e-05
8 *309:CLK 0
9 *314:X 0.000264841
10 *50:74 0.000863012
11 *50:60 5.02866e-05
12 *50:58 0.000308555
13 *50:36 0.000859091
14 *50:22 0.000449556
15 *50:14 0.00156276
16 *50:10 0.00144517
17 *298:CLK *298:D 0.000139338
18 *298:CLK *298:RESET_B 2.85234e-05
19 *299:CLK *299:D 7.77652e-05
20 *299:CLK *299:RESET_B 2.89016e-05
21 *303:CLK *303:RESET_B 6.45442e-05
22 *303:CLK *306:D 3.41649e-05
23 *303:CLK *306:RESET_B 2.24792e-05
24 *303:CLK *73:8 4.07505e-05
25 *305:CLK *305:D 4.9766e-05
26 *305:CLK *305:RESET_B 2.48941e-05
27 *305:CLK *307:D 0
28 *311:CLK *309:D 3.08664e-05
29 *50:10 *59:39 0.000104967
30 *50:14 *291:A 3.46801e-05
31 *50:14 *306:D 1.28239e-05
32 *50:14 *73:69 0.000109273
33 *50:22 *306:D 0.000716954
34 *50:22 *309:D 7.3565e-05
35 *50:22 *311:RESET_B 0
36 *50:36 *306:D 1.13883e-05
37 *50:58 *59:39 5.58331e-05
38 *50:74 *299:RESET_B 0.0001548
39 *50:74 *307:D 0
40 *50:74 *59:39 2.37944e-05
41 *291:B *50:14 0.000269747
42 *317:A *50:22 0.000110739
43 *44:12 *50:14 6.34436e-05
*RES
1 *314:X *50:10 18.1214 
2 *50:10 *50:14 18.1786 
3 *50:14 *50:22 20 
4 *50:22 *309:CLK 9.3 
5 *50:22 *311:CLK 9.83571 
6 *50:14 *50:36 0.535714 
7 *50:36 *306:CLK 10.0321 
8 *50:36 *303:CLK 28.2821 
9 *50:10 *50:58 1.64286 
10 *50:58 *50:60 4.5 
11 *50:60 *298:CLK 10.6571 
12 *50:60 *307:CLK 9.3 
13 *50:58 *50:74 4.98214 
14 *50:74 *299:CLK 15.1571 
15 *50:74 *305:CLK 23.7643 
*END

*D_NET *51 0.00130239
*CONN
*I *303:D I *D sky130_fd_sc_hd__dfrtp_1
*I *320:X O *D sky130_fd_sc_hd__clkbuf_1
*CAP
1 *303:D 0.000603826
2 *320:X 0.000603826
3 *303:D *303:RESET_B 5.49995e-05
4 *303:D *73:8 3.9733e-05
*RES
1 *320:X *303:D 35.8857 
*END

*D_NET *52 0.00186359
*CONN
*I *311:D I *D sky130_fd_sc_hd__dfrtp_2
*I *321:X O *D sky130_fd_sc_hd__clkbuf_1
*CAP
1 *311:D 0.000498638
2 *321:X 0.000498638
3 *311:D *309:D 0.000576933
4 *311:D *311:RESET_B 0.000121922
5 *311:D *73:36 0.000167457
*RES
1 *321:X *311:D 40.1714 
*END

*D_NET *53 0.000685409
*CONN
*I *330:A I *D sky130_fd_sc_hd__buf_2
*I *301:Q O *D sky130_fd_sc_hd__dfrtp_1
*CAP
1 *330:A 0.000303236
2 *301:Q 0.000303236
3 *330:A *62:16 7.89362e-05
*RES
1 *301:Q *330:A 32.7786 
*END

*D_NET *54 0.000332454
*CONN
*I *331:A I *D sky130_fd_sc_hd__clkbuf_4
*I *302:Q O *D sky130_fd_sc_hd__dfrtp_1
*CAP
1 *331:A 0.000162837
2 *302:Q 0.000162837
3 *331:A *302:RESET_B 0
4 *326:A *331:A 6.78055e-06
*RES
1 *302:Q *331:A 30.0821 
*END

*D_NET *55 0.00137562
*CONN
*I *332:A I *D sky130_fd_sc_hd__clkbuf_4
*I *297:Q O *D sky130_fd_sc_hd__dfrtp_1
*CAP
1 *332:A 0.000421253
2 *297:Q 0.000421253
3 *332:A *72:18 0.00022936
4 *49:59 *332:A 0.000303756
*RES
1 *297:Q *332:A 36.5643 
*END

*D_NET *56 0.000273539
*CONN
*I *333:A I *D sky130_fd_sc_hd__clkbuf_4
*I *298:Q O *D sky130_fd_sc_hd__dfrtp_1
*CAP
1 *333:A 0.000136769
2 *298:Q 0.000136769
3 y_out[1] *333:A 0
*RES
1 *298:Q *333:A 29.475 
*END

*D_NET *57 0.000572683
*CONN
*I *334:A I *D sky130_fd_sc_hd__clkbuf_4
*I *299:Q O *D sky130_fd_sc_hd__dfrtp_1
*CAP
1 *334:A 0.000286341
2 *299:Q 0.000286341
*RES
1 *299:Q *334:A 32.5107 
*END

*D_NET *58 0.000513056
*CONN
*I *335:A I *D sky130_fd_sc_hd__clkbuf_4
*I *300:Q O *D sky130_fd_sc_hd__dfrtp_1
*CAP
1 *335:A 0.000182845
2 *300:Q 0.000182845
3 *335:A *283:A 0.000100037
4 *283:B *335:A 4.73286e-05
*RES
1 *300:Q *335:A 22.0286 
*END

*D_NET *59 0.0163066
*CONN
*I *304:RESET_B I *D sky130_fd_sc_hd__dfrtp_1
*I *303:RESET_B I *D sky130_fd_sc_hd__dfrtp_1
*I *300:RESET_B I *D sky130_fd_sc_hd__dfrtp_1
*I *301:RESET_B I *D sky130_fd_sc_hd__dfrtp_1
*I *310:RESET_B I *D sky130_fd_sc_hd__dfrtp_1
*I *297:RESET_B I *D sky130_fd_sc_hd__dfrtp_1
*I *299:RESET_B I *D sky130_fd_sc_hd__dfrtp_1
*I *298:RESET_B I *D sky130_fd_sc_hd__dfrtp_1