*SPEF "ieee 1481-1999"
*DESIGN "addsub4_top"
*DATE "11:11:11 Fri 11 11, 1111"
*VENDOR "OpenRCX"
*PROGRAM "Parallel Extraction"
*VERSION "1.0"
*DESIGN_FLOW "NAME_SCOPE LOCAL" "PIN_CAP NONE"
*DIVIDER /
*DELIMITER :
*BUS_DELIMITER []
*T_UNIT 1 NS
*C_UNIT 1 PF
*R_UNIT 1 OHM
*L_UNIT 1 HENRY

*NAME_MAP
*3 a_in[0]
*4 a_in[1]
*5 a_in[2]
*6 a_in[3]
*7 b_in[0]
*8 b_in[1]
*9 b_in[2]
*10 b_in[3]
*11 clk
*12 cout_out
*13 ovf_out
*14 rst_n
*15 sub_in
*16 y_out[0]
*17 y_out[1]
*18 y_out[2]
*19 y_out[3]
*20 _00_
*21 _01_
*22 _02_
*23 _03_
*24 _04_
*25 _05_
*26 _06_
*27 _07_
*28 _08_
*29 _09_
*30 _10_
*31 _11_
*32 _12_
*33 _13_
*34 _14_
*35 _15_
*36 _16_
*37 _17_
*38 _18_
*39 _19_
*40 a_r\[0\]
*41 a_r\[1\]
*42 a_r\[2\]
*43 a_r\[3\]
*44 b_r\[0\]
*45 b_r\[1\]
*46 b_r\[2\]
*47 b_r\[3\]
*48 clknet_0_clk
*49 clknet_1_0__leaf_clk
*50 clknet_1_1__leaf_clk
*51 net1
*52 net10
*53 net11
*54 net12
*55 net13
*56 net14
*57 net15
*58 net16
*59 net17
*60 net18
*61 net19
*62 net2
*63 net20
*64 net21
*65 net3
*66 net4
*67 net5
*68 net6
*69 net7
*70 net8
*71 net9
*72 ovf
*73 sub_r
*74 sum\[0\]
*75 sum\[1\]
*76 sum\[2\]
*77 sum\[3\]
*78 sum\[4\]
*79 FILLER_0_0_26
*80 FILLER_0_0_29
*81 FILLER_0_0_41
*82 FILLER_0_0_49
*83 FILLER_0_0_55
*84 FILLER_0_0_57
*85 FILLER_0_0_69
*86 FILLER_0_0_77
*87 FILLER_0_0_83
*88 FILLER_0_0_85
*89 FILLER_0_0_91
*90 FILLER_0_10_15
*91 FILLER_0_10_27
*92 FILLER_0_10_29
*93 FILLER_0_10_3
*94 FILLER_0_10_57
*95 FILLER_0_10_79
*96 FILLER_0_10_83
*97 FILLER_0_10_85
*98 FILLER_0_10_93
*99 FILLER_0_11_23
*100 FILLER_0_11_49
*101 FILLER_0_11_55
*102 FILLER_0_11_57
*103 FILLER_0_11_80
*104 FILLER_0_11_92
*105 FILLER_0_12_21
*106 FILLER_0_12_27
*107 FILLER_0_12_29
*108 FILLER_0_12_41
*109 FILLER_0_12_53
*110 FILLER_0_12_57
*111 FILLER_0_12_66
*112 FILLER_0_12_78
*113 FILLER_0_12_85
*114 FILLER_0_12_9
*115 FILLER_0_12_91
*116 FILLER_0_13_23
*117 FILLER_0_13_52
*118 FILLER_0_13_57
*119 FILLER_0_13_69
*120 FILLER_0_13_81
*121 FILLER_0_13_93
*122 FILLER_0_14_29
*123 FILLER_0_14_3
*124 FILLER_0_14_7
*125 FILLER_0_14_85
*126 FILLER_0_14_93
*127 FILLER_0_15_12
*128 FILLER_0_15_24
*129 FILLER_0_15_29
*130 FILLER_0_15_34
*131 FILLER_0_15_42
*132 FILLER_0_15_48
*133 FILLER_0_15_57
*134 FILLER_0_15_65
*135 FILLER_0_15_69
*136 FILLER_0_15_81
*137 FILLER_0_15_85
*138 FILLER_0_1_49
*139 FILLER_0_1_55
*140 FILLER_0_1_57
*141 FILLER_0_1_61
*142 FILLER_0_1_82
*143 FILLER_0_1_90
*144 FILLER_0_2_15
*145 FILLER_0_2_27
*146 FILLER_0_2_29
*147 FILLER_0_2_3
*148 FILLER_0_2_41
*149 FILLER_0_2_53
*150 FILLER_0_2_61
*151 FILLER_0_2_85
*152 FILLER_0_2_93
*153 FILLER_0_3_15
*154 FILLER_0_3_27
*155 FILLER_0_3_3
*156 FILLER_0_3_39
*157 FILLER_0_3_51
*158 FILLER_0_3_55
*159 FILLER_0_3_57
*160 FILLER_0_3_69
*161 FILLER_0_3_81
*162 FILLER_0_3_93
*163 FILLER_0_4_15
*164 FILLER_0_4_27
*165 FILLER_0_4_29
*166 FILLER_0_4_3
*167 FILLER_0_4_41
*168 FILLER_0_4_53
*169 FILLER_0_4_68
*170 FILLER_0_4_72
*171 FILLER_0_4_85
*172 FILLER_0_4_93
*173 FILLER_0_5_3
*174 FILLER_0_5_48
*175 FILLER_0_5_57
*176 FILLER_0_5_7
*177 FILLER_0_5_82
*178 FILLER_0_5_94
*179 FILLER_0_6_18
*180 FILLER_0_6_26
*181 FILLER_0_6_35
*182 FILLER_0_6_50
*183 FILLER_0_6_6
*184 FILLER_0_6_62
*185 FILLER_0_6_88
*186 FILLER_0_7_15
*187 FILLER_0_7_27
*188 FILLER_0_7_3
*189 FILLER_0_7_49
*190 FILLER_0_7_55
*191 FILLER_0_7_57
*192 FILLER_0_7_72
*193 FILLER_0_7_82
*194 FILLER_0_7_94
*195 FILLER_0_8_15
*196 FILLER_0_8_27
*197 FILLER_0_8_29
*198 FILLER_0_8_3
*199 FILLER_0_8_37
*200 FILLER_0_8_64
*201 FILLER_0_8_76
*202 FILLER_0_8_85
*203 FILLER_0_8_93
*204 FILLER_0_9_15
*205 FILLER_0_9_3
*206 FILLER_0_9_49
*207 FILLER_0_9_55
*208 FILLER_0_9_57
*209 FILLER_0_9_69
*210 FILLER_0_9_77
*211 FILLER_0_9_87
*212 PHY_0
*213 PHY_1
*214 PHY_10
*215 PHY_11
*216 PHY_12
*217 PHY_13
*218 PHY_14
*219 PHY_15
*220 PHY_16
*221 PHY_17
*222 PHY_18
*223 PHY_19
*224 PHY_2
*225 PHY_20
*226 PHY_21
*227 PHY_22
*228 PHY_23
*229 PHY_24
*230 PHY_25
*231 PHY_26
*232 PHY_27
*233 PHY_28
*234 PHY_29
*235 PHY_3
*236 PHY_30
*237 PHY_31
*238 PHY_4
*239 PHY_5
*240 PHY_6
*241 PHY_7
*242 PHY_8
*243 PHY_9
*244 TAP_32
*245 TAP_33
*246 TAP_34
*247 TAP_35
*248 TAP_36
*249 TAP_37
*250 TAP_38
*251 TAP_39
*252 TAP_40
*253 TAP_41
*254 TAP_42
*255 TAP_43
*256 TAP_44
*257 TAP_45
*258 TAP_46
*259 TAP_47
*260 TAP_48
*261 TAP_49
*262 TAP_50
*263 TAP_51
*264 TAP_52
*265 TAP_53
*266 TAP_54
*267 TAP_55
*268 TAP_56
*269 TAP_57
*270 TAP_58
*271 _20_
*272 _21_
*273 _22_
*274 _23_
*275 _24_
*276 _25_
*277 _26_
*278 _27_
*279 _28_
*280 _29_
*281 _30_
*282 _31_
*283 _32_
*284 _33_
*285 _34_
*286 _35_
*287 _36_
*288 _37_
*289 _38_
*290 _39_
*291 _40_
*292 _41_
*293 _42_
*294 _43_
*295 _44_
*296 _45_
*297 _46_
*298 _47_
*299 _48_
*300 _49_
*301 _50_
*302 _51_
*303 _52_
*304 _53_
*305 _54_
*306 _55_
*307 _56_
*308 _57_
*309 _58_
*310 _59_
*311 _60_
*312 clkbuf_0_clk
*313 clkbuf_1_0__f_clk
*314 clkbuf_1_1__f_clk
*315 fanout17
*316 fanout18
*317 hold1
*318 hold2
*319 hold3
*320 input1
*321 input10
*322 input2
*323 input3
*324 input4
*325 input5
*326 input6
*327 input7
*328 input8
*329 input9
*330 output11
*331 output12
*332 output13
*333 output14
*334 output15
*335 output16

*PORTS
a_in[0] I
a_in[1] I
a_in[2] I
a_in[3] I
b_in[0] I
b_in[1] I
b_in[2] I
b_in[3] I
clk I
cout_out O
ovf_out O
rst_n I
sub_in I
y_out[0] O
y_out[1] O
y_out[2] O
y_out[3] O

*D_NET *3 0.00053459
*CONN
*P a_in[0] I
*I *320:A I *D sky130_fd_sc_hd__clkbuf_1
*CAP
1 a_in[0] 0.000267295
2 *320:A 0.000267295
*RES
1 a_in[0] *320:A 48.7862 
*END

*D_NET *4 0.00142595
*CONN
*P a_in[1] I
*I *322:A I *D sky130_fd_sc_hd__clkbuf_1
*CAP
1 a_in[1] 0.000712973
2 *322:A 0
3 *4:9 0.000712973
*RES
1 a_in[1] *4:9 30.0386 
2 *4:9 *322:A 23 
*END

*D_NET *5 0.0012321
*CONN
*P a_in[2] I
*I *323:A I *D sky130_fd_sc_hd__clkbuf_1
*CAP
1 a_in[2] 0.00061605
2 *323:A 0
3 *5:11 0.00061605
4 *5:11 y_out[2] 0
*RES
1 a_in[2] *5:11 29.5241 
2 *5:11 *323:A 23 
*END

*D_NET *6 0.00118815
*CONN
*P a_in[3] I
*I *324:A I *D sky130_fd_sc_hd__clkbuf_1
*CAP
1 a_in[3] 0.000583623
2 *324:A 0
3 *6:11 0.000583623
4 *6:11 *66:8 2.09026e-05
*RES
1 a_in[3] *6:11 27.5321 
2 *6:11 *324:A 23 
*END

*D_NET *7 0.00125823
*CONN
*P b_in[0] I
*I *325:A I *D sky130_fd_sc_hd__clkbuf_1
*CAP
1 b_in[0] 0.000555288
2 *325:A 0
3 *7:9 0.000555288
4 *7:9 *42:14 0.000147656
*RES
1 b_in[0] *7:9 27.3871 
2 *7:9 *325:A 23 
*END

*D_NET *8 0.00342076
*CONN
*P b_in[1] I
*I *326:A I *D sky130_fd_sc_hd__clkbuf_1
*CAP
1 b_in[1] 0.00156254
2 *326:A 0
3 *8:11 0.00156254
4 *8:11 *13:12 0
5 *8:11 *54:10 6.71408e-06
6 *8:11 *72:18 0.000288971
*RES
1 b_in[1] *8:11 41.6179 
2 *8:11 *326:A 23 
*END

*D_NET *9 0.00153221
*CONN
*P b_in[2] I
*I *327:A I *D sky130_fd_sc_hd__clkbuf_1
*CAP
1 b_in[2] 0.000766106
2 *327:A 0
3 *9:15 0.000766106
4 *9:15 *15:15 0
*RES
1 b_in[2] *9:15 30.6811 
2 *9:15 *327:A 23 
*END

*D_NET *10 0.00100515
*CONN
*P b_in[3] I
*I *328:A I *D sky130_fd_sc_hd__clkbuf_1
*CAP
1 b_in[3] 0.00049989
2 *328:A 0.00049989
3 *328:A *62:8 5.37348e-06
*RES
1 b_in[3] *328:A 48.2743 
*END

*D_NET *11 0.00583112
*CONN
*P clk I
*I *312:A I *D sky130_fd_sc_hd__clkbuf_16
*CAP
1 clk 0.00207001
2 *312:A 0.000308906
3 *11:13 0.00237891
4 *312:A *292:B_N 0.000100069
5 *312:A *38:10 5.27117e-05
6 *312:A *48:12 9.91843e-05
7 *11:13 *274:B 0.000261279
8 *11:13 *302:RESET_B 0.000224273
9 *11:13 *45:10 0.000110267
10 *11:13 *48:32 5.0258e-05
11 *11:13 *49:14 3.68205e-05
12 *11:13 *59:14 2.51913e-05
13 *11:13 *59:73 0
14 *11:13 *68:12 0
15 *11:13 *73:69 0.000113235
*RES
1 clk *11:13 48.5457 
2 *11:13 *312:A 43.3857 
*END

*D_NET *12 0.000651422
*CONN
*P cout_out O
*I *330:X O *D sky130_fd_sc_hd__buf_2
*CAP
1 cout_out 0.000325711
2 *330:X 0.000325711
*RES
1 *330:X cout_out 47.1648 
*END

*D_NET *13 0.000725124
*CONN
*P ovf_out O
*I *331:X O *D sky130_fd_sc_hd__clkbuf_4
*CAP
1 ovf_out 8.53373e-05
2 *331:X 0.000277225
3 *13:12 0.000362562
4 *8:11 *13:12 0
*RES
1 *331:X *13:12 49.8011 
2 *13:12 ovf_out 0.328533 
*END

*D_NET *14 0.000569738
*CONN
*P rst_n I
*I *329:A I *D sky130_fd_sc_hd__buf_1
*CAP
1 rst_n 0.000284869
2 *329:A 0.000284869
*RES
1 rst_n *329:A 47.7832 
*END

*D_NET *15 0.00122798
*CONN
*P sub_in I
*I *321:A I *D sky130_fd_sc_hd__clkbuf_1
*CAP
1 sub_in 0.00061399
2 *321:A 0
3 *15:15 0.00061399
4 *9:15 *15:15 0
*RES
1 sub_in *15:15 27.8221 
2 *15:15 *321:A 23 
*END

*D_NET *16 0.000975151
*CONN
*P y_out[0] O
*I *332:X O *D sky130_fd_sc_hd__clkbuf_4
*CAP
1 y_out[0] 0.000478789
2 *332:X 0.000478789
3 y_out[0] *72:18 1.75737e-05
*RES
1 *332:X y_out[0] 47.86 
*END

*D_NET *17 0.000799538
*CONN
*P y_out[1] O
*I *333:X O *D sky130_fd_sc_hd__clkbuf_4
*CAP
1 y_out[1] 9.75781e-05
2 *333:X 0.000302191
3 *17:10 0.000399769
4 *17:10 *56:10 0
*RES
1 *333:X *17:10 42.1532 
2 *17:10 y_out[1] 8.32853 
*END

*D_NET *18 0.00121808
*CONN
*P y_out[2] O
*I *334:X O *D sky130_fd_sc_hd__clkbuf_4
*CAP
1 y_out[2] 0.000609038
2 *334:X 0.000609038
3 *5:11 y_out[2] 0
*RES
1 *334:X y_out[2] 49.6829 
*END

*D_NET *19 0.000666504
*CONN
*P y_out[3] O
*I *335:X O *D sky130_fd_sc_hd__clkbuf_4
*CAP
1 y_out[3] 0.000333252
2 *335:X 0.000333252
*RES
1 *335:X y_out[3] 48.8721 
*END

*D_NET *20 0.00205661
*CONN
*I *280:B I *D sky130_fd_sc_hd__and3_1
*I *273:A1 I *D sky130_fd_sc_hd__a21o_1
*I *271:X O *D sky130_fd_sc_hd__or2_1
*CAP
1 *280:B 0
2 *273:A1 0.000106819
3 *271:X 0
4 *20:25 0.000402308
5 *20:4 0.000509127
6 *273:A1 *273:A2 0.000141224
7 *273:A1 *42:14 1.8788e-05
8 *273:A1 *42:31 2.16183e-05
9 *20:25 *271:B 0.000180044
10 *20:25 *273:A2 0.000319702
11 *20:25 *280:C 8.82103e-05
12 *20:25 *42:31 8.52094e-06
13 *20:25 *66:14 0
14 *20:25 *73:57 0.000260245
*RES
1 *271:X *20:4 23 
2 *20:4 *273:A1 25.9207 
3 *20:4 *20:25 38.9279 
4 *20:25 *280:B 23 
*END

*D_NET *21 0.00229181
*CONN
*I *273:A2 I *D sky130_fd_sc_hd__a21o_1
*I *280:C I *D sky130_fd_sc_hd__and3_1
*I *272:Y O *D sky130_fd_sc_hd__nand2_1
*CAP
1 *273:A2 0.000262642
2 *280:C 6.86174e-05
3 *272:Y 0.00027976
4 *21:8 0.000611019
5 *273:A2 *42:31 0.000301289
6 *280:C *42:31 3.6608e-05
7 *21:8 *309:RESET_B 0.000182742
8 *273:A1 *273:A2 0.000141224
9 *20:25 *273:A2 0.000319702
10 *20:25 *280:C 8.82103e-05
*RES
1 *272:Y *21:8 41.48 
2 *21:8 *280:C 39.4293 
3 *21:8 *273:A2 46.265 
*END

*D_NET *22 0.00197796
*CONN
*I *281:A1 I *D sky130_fd_sc_hd__a21o_1
*I *294:B_N I *D sky130_fd_sc_hd__or2b_1
*I *273:X O *D sky130_fd_sc_hd__a21o_1
*CAP
1 *281:A1 0
2 *294:B_N 0.000217758
3 *273:X 0.000247916
4 *22:14 0.000304998
5 *22:10 0.000335156
6 *294:B_N *281:A2 6.17437e-06
7 *294:B_N *281:B1 0.000332728
8 *294:B_N *28:20 4.65192e-05
9 *294:B_N *29:6 9.03364e-06
10 *294:B_N *39:10 0.000188109
11 *22:10 *28:35 7.51623e-05
12 *22:10 *42:14 5.22521e-05
13 *22:10 *67:8 5.9651e-05
14 *22:10 *76:8 8.78864e-05
15 *22:14 *281:A2 1.46205e-05
*RES
1 *273:X *22:10 43.1164 
2 *22:10 *22:14 16.0979 
3 *22:14 *294:B_N 28.9036 
4 *22:14 *281:A1 23 
*END

*D_NET *23 0.000989385
*CONN
*I *276:A1 I *D sky130_fd_sc_hd__a21o_1
*I *278:B I *D sky130_fd_sc_hd__and3_1
*I *274:X O *D sky130_fd_sc_hd__or2_1
*CAP
1 *276:A1 0
2 *278:B 0.000208166
3 *274:X 0.000106824
4 *23:6 0.000314989
5 *278:B *278:A 1.06972e-05
6 *278:B *278:C 4.86311e-05
7 *278:B *24:14 6.56229e-05
8 *23:6 *25:10 0.000139857
9 *23:6 *73:81 9.45986e-05
*RES
1 *274:X *23:6 25.5271 
2 *23:6 *278:B 26.6043 
3 *23:6 *276:A1 23 
*END

*D_NET *24 0.00093486
*CONN
*I *278:C I *D sky130_fd_sc_hd__and3_1
*I *276:A2 I *D sky130_fd_sc_hd__a21o_1
*I *275:Y O *D sky130_fd_sc_hd__nand2_1
*CAP
1 *278:C 8.73413e-05
2 *276:A2 0
3 *275:Y 0.000236799
4 *24:14 0.000111405
5 *24:10 0.000260863
6 *278:C *278:A 6.29287e-05
7 *24:10 *59:69 3.82058e-06
8 *24:10 *63:8 4.59435e-06
9 *24:10 *73:81 5.28551e-05
10 *278:B *278:C 4.86311e-05
11 *278:B *24:14 6.56229e-05
*RES
1 *275:Y *24:10 41.1279 
2 *24:10 *24:14 15.8493 
3 *24:14 *276:A2 23 
4 *24:14 *278:C 25.2993 
*END

*D_NET *25 0.00152958
*CONN
*I *279:A1 I *D sky130_fd_sc_hd__a21o_1
*I *292:B_N I *D sky130_fd_sc_hd__or2b_1
*I *276:X O *D sky130_fd_sc_hd__a21o_1
*CAP
1 *279:A1 0.000236701
2 *292:B_N 2.63285e-05
3 *276:X 0.000213574
4 *25:10 0.000476604
5 *279:A1 *279:A2 5.71047e-05
6 *279:A1 *293:B 1.1258e-05
7 *279:A1 *26:12 3.28357e-06
8 *279:A1 *38:10 0.000137754
9 *279:A1 *71:29 7.01075e-06
10 *292:B_N *48:12 5.40337e-05
11 *25:10 *278:A 4.41821e-06
12 *25:10 *71:29 6.15872e-05
13 *312:A *292:B_N 0.000100069
14 *23:6 *25:10 0.000139857
*RES
1 *276:X *25:10 41.48 
2 *25:10 *292:B_N 39.0979 
3 *25:10 *279:A1 43.1786 
*END

*D_NET *26 0.000436479
*CONN
*I *279:A2 I *D sky130_fd_sc_hd__a21o_1
*I *293:B I *D sky130_fd_sc_hd__xnor2_1
*I *277:X O *D sky130_fd_sc_hd__mux2_1
*CAP
1 *279:A2 4.11404e-05
2 *293:B 1.71939e-05
3 *277:X 6.81227e-05
4 *26:12 9.43492e-05
5 *26:8 0.000104138
6 *26:8 *71:29 3.98887e-05
7 *279:A1 *279:A2 5.71047e-05
8 *279:A1 *293:B 1.1258e-05
9 *279:A1 *26:12 3.28357e-06
*RES
1 *277:X *26:8 39.2014 
2 *26:8 *26:12 15.8493 
3 *26:12 *293:B 23.4971 
4 *26:12 *279:A2 24.0979 
*END

*D_NET *27 0.00152006
*CONN
*I *279:B1 I *D sky130_fd_sc_hd__a21o_1
*I *292:A I *D sky130_fd_sc_hd__or2b_1
*I *278:X O *D sky130_fd_sc_hd__and3_1
*CAP
1 *279:B1 0.000139963
2 *292:A 0.000183815
3 *278:X 0.000179485
4 *27:8 0.000503263
5 *279:B1 *28:14 5.45541e-05
6 *279:B1 *74:8 7.84832e-05
7 *292:A *48:12 0.000278295
8 *27:8 *74:8 0.000102198
*RES
1 *278:X *27:8 40.9621 
2 *27:8 *292:A 41.0036 
3 *27:8 *279:B1 41.3557 
*END

*D_NET *28 0.00353763
*CONN
*I *295:B I *D sky130_fd_sc_hd__xnor2_1
*I *281:A2 I *D sky130_fd_sc_hd__a21o_1
*I *279:X O *D sky130_fd_sc_hd__a21o_1
*CAP
1 *295:B 0
2 *281:A2 6.17648e-05
3 *279:X 0.000641983
4 *28:35 0.000181835
5 *28:20 0.000447946
6 *28:14 0.000846329
7 *28:14 *272:B 0
8 *28:14 *30:8 0
9 *28:14 *44:8 6.15872e-05
10 *28:14 *73:57 0.00059728
11 *28:20 *281:B1 0.000339725
12 *28:35 *39:10 0.000136609
13 *28:35 *60:22 1.90253e-05
14 *28:35 *67:8 0
15 *28:35 *76:8 6.51997e-06
16 *279:B1 *28:14 5.45541e-05
17 *294:B_N *281:A2 6.17437e-06
18 *294:B_N *28:20 4.65192e-05
19 *22:10 *28:35 7.51623e-05
20 *22:14 *281:A2 1.46205e-05
*RES
1 *279:X *28:14 49.9936 
2 *28:14 *28:20 19.8057 
3 *28:20 *281:A2 24.1186 
4 *28:20 *28:35 33.3143 
5 *28:35 *295:B 23 
*END

*D_NET *29 0.00108174
*CONN
*I *281:B1 I *D sky130_fd_sc_hd__a21o_1
*I *294:A I *D sky130_fd_sc_hd__or2b_1
*I *280:X O *D sky130_fd_sc_hd__and3_1
*CAP
1 *281:B1 0.000103389
2 *294:A 0
3 *280:X 9.674e-05
4 *29:6 0.000200129
5 *294:B_N *281:B1 0.000332728
6 *294:B_N *29:6 9.03364e-06
7 *28:20 *281:B1 0.000339725
*RES
1 *280:X *29:6 24.0979 
2 *29:6 *294:A 23 
3 *29:6 *281:B1 27.6814 
*END

*D_NET *30 0.00651578
*CONN
*I *296:A1 I *D sky130_fd_sc_hd__o21a_1
*I *289:A1 I *D sky130_fd_sc_hd__o22a_1
*I *290:A1 I *D sky130_fd_sc_hd__o21a_1
*I *288:A I *D sky130_fd_sc_hd__nand2_1
*I *281:X O *D sky130_fd_sc_hd__a21o_1
*CAP
1 *296:A1 0.000102019
2 *289:A1 0
3 *290:A1 3.44519e-05
4 *288:A 0.000112829
5 *281:X 5.76996e-05
6 *30:44 0.000194075
7 *30:31 0.000126508
8 *30:20 0.00114305
9 *30:14 0.00194654
10 *30:8 0.000974013
11 *288:A *37:8 0.000134767
12 *288:A *49:89 9.91958e-05
13 *290:A1 *290:B1 5.14826e-05
14 *290:A1 *62:18 9.79925e-05
15 *296:A1 *289:A2 4.21048e-05
16 *296:A1 *296:A2 5.82853e-05
17 *296:A1 *33:29 0.000138105
18 *296:A1 *62:18 0.000201682
19 *30:8 *60:22 8.71559e-05
20 *30:14 *40:29 4.77393e-05
21 *30:14 *61:10 6.74969e-06
22 *30:20 *306:RESET_B 0.000156604
23 *30:20 *311:RESET_B 9.57482e-05
24 *30:20 *37:8 3.67392e-05
25 *30:20 *40:29 6.67321e-05
26 *30:20 *49:89 5.57889e-05
27 *30:20 *77:8 8.57485e-05
28 *30:44 *289:A2 5.79559e-05
29 *30:44 *290:B1 2.64616e-05
30 *30:44 *33:29 0.000135452
31 *30:44 *62:18 0.000142107
32 *28:14 *30:8 0
*RES
1 *281:X *30:8 39.2014 
2 *30:8 *30:14 41.1029 
3 *30:14 *30:20 22.1643 
4 *30:20 *288:A 40.9621 
5 *30:20 *30:31 15 
6 *30:31 *290:A1 24.0979 
7 *30:31 *30:44 3.16929 
8 *30:44 *289:A1 23 
9 *30:44 *296:A1 26.6457 
*END

*D_NET *31 0.00106681
*CONN
*I *285:A1 I *D sky130_fd_sc_hd__a21oi_1
*I *284:B I *D sky130_fd_sc_hd__and3_1
*I *282:X O *D sky130_fd_sc_hd__or2_1
*CAP
1 *285:A1 0.000134459
2 *284:B 7.90019e-05
3 *282:X 0.000124285
4 *31:10 0.000213461
5 *31:8 0.000124285
6 *284:B *284:C 2.94665e-05
7 *285:A1 *284:C 1.59094e-05
8 *285:A1 *32:14 6.60665e-05
9 *285:A1 *34:8 2.92911e-06
10 *31:8 *303:RESET_B 3.61904e-05
11 *31:8 *32:10 8.57485e-05
12 *31:8 *33:23 8.59116e-05
13 *31:8 *59:102 6.90927e-05
*RES
1 *282:X *31:8 42.0186 
2 *31:8 *31:10 15 
3 *31:10 *284:B 24.0979 
4 *31:10 *285:A1 25.2993 
*END

*D_NET *32 0.00145909
*CONN
*I *285:A2 I *D sky130_fd_sc_hd__a21oi_1
*I *284:C I *D sky130_fd_sc_hd__and3_1
*I *283:Y O *D sky130_fd_sc_hd__nand2_1
*CAP
1 *285:A2 0
2 *284:C 6.64385e-05
3 *283:Y 0.000361718
4 *32:14 8.84166e-05
5 *32:10 0.000383697
6 *284:C *34:8 0.000127338
7 *32:10 *283:B 0.000124023
8 *32:10 *303:RESET_B 0.000110267
9 *284:B *284:C 2.94665e-05
10 *285:A1 *284:C 1.59094e-05
11 *285:A1 *32:14 6.60665e-05
12 *31:8 *32:10 8.57485e-05
*RES
1 *283:Y *32:10 43.51 
2 *32:10 *32:14 15.8493 
3 *32:14 *284:C 25.2993 
4 *32:14 *285:A2 23 
*END

*D_NET *33 0.0029438
*CONN
*I *296:A2 I *D sky130_fd_sc_hd__o21a_1
*I *289:B2 I *D sky130_fd_sc_hd__o22a_1
*I *290:A2 I *D sky130_fd_sc_hd__o21a_1
*I *286:A I *D sky130_fd_sc_hd__nor2_1
*I *284:X O *D sky130_fd_sc_hd__and3_1
*CAP
1 *296:A2 2.04863e-05
2 *289:B2 0
3 *290:A2 0
4 *286:A 0.00014031
5 *284:X 0
6 *33:37 0.000267721
7 *33:29 0.000483639
8 *33:23 0.000466243
9 *33:4 0.000370149
10 *286:A *286:B 0.000100311
11 *33:23 *34:8 8.06804e-06
12 *33:23 *34:27 0.000311585
13 *33:23 *36:21 1.13812e-05
14 *33:29 *290:B1 3.85196e-05
15 *33:37 *37:8 8.50457e-05
16 *33:37 *62:18 0.000222587
17 *296:A1 *296:A2 5.82853e-05
18 *296:A1 *33:29 0.000138105
19 *30:44 *33:29 0.000135452
20 *31:8 *33:23 8.59116e-05
*RES
1 *284:X *33:4 23 
2 *33:4 *286:A 26.045 
3 *33:4 *33:23 35.6964 
4 *33:23 *33:29 4.47429 
5 *33:29 *33:37 33.7286 
6 *33:37 *290:A2 23 
7 *33:29 *289:B2 23 
8 *33:23 *296:A2 23.6214 
*END

*D_NET *34 0.00270104
*CONN
*I *287:A I *D sky130_fd_sc_hd__inv_2
*I *286:B I *D sky130_fd_sc_hd__nor2_1
*I *285:Y O *D sky130_fd_sc_hd__a21oi_1
*CAP
1 *287:A 0
2 *286:B 4.14349e-05
3 *285:Y 0.000289927
4 *34:27 0.000445928
5 *34:8 0.00077729
6 *34:27 *35:8 0.000256172
7 *34:27 *36:21 0.000176034
8 *34:27 *78:8 0.000164019
9 *284:C *34:8 0.000127338
10 *285:A1 *34:8 2.92911e-06
11 *286:A *286:B 0.000100311
12 *33:23 *34:8 8.06804e-06
13 *33:23 *34:27 0.000311585
*RES
1 *285:Y *34:8 27.293 
2 *34:8 *286:B 24.0979 
3 *34:8 *34:27 40.3364 
4 *34:27 *287:A 23 
*END

*D_NET *35 0.000936814
*CONN
*I *289:A2 I *D sky130_fd_sc_hd__o22a_1
*I *286:Y O *D sky130_fd_sc_hd__nor2_1
*CAP
1 *289:A2 1.7859e-05
2 *286:Y 0.000221237
3 *35:8 0.000239096
4 *289:A2 *62:18 0.000102389
5 *296:A1 *289:A2 4.21048e-05
6 *30:44 *289:A2 5.79559e-05
7 *34:27 *35:8 0.000256172
*RES
1 *286:Y *35:8 43.075 
2 *35:8 *289:A2 39.0979 
*END

*D_NET *36 0.000950291
*CONN
*I *296:B1 I *D sky130_fd_sc_hd__o21a_1
*I *288:B I *D sky130_fd_sc_hd__nand2_1
*I *287:Y O *D sky130_fd_sc_hd__inv_2
*CAP
1 *296:B1 0
2 *288:B 0.000139166
3 *287:Y 0
4 *36:21 0.000242272
5 *36:4 0.000381438
6 *33:23 *36:21 1.13812e-05
7 *34:27 *36:21 0.000176034
*RES
1 *287:Y *36:4 23 
2 *36:4 *288:B 25.7757 
3 *36:4 *36:21 33.8321 
4 *36:21 *296:B1 23 
*END

*D_NET *37 0.00104324
*CONN
*I *290:B1 I *D sky130_fd_sc_hd__o21a_1
*I *289:B1 I *D sky130_fd_sc_hd__o22a_1
*I *288:Y O *D sky130_fd_sc_hd__nand2_1
*CAP
1 *290:B1 0.000192343
2 *289:B1 0
3 *288:Y 0.000100291
4 *37:10 0.000192343
5 *37:8 0.000100291
6 *290:B1 *62:18 8.49544e-05
7 *288:A *37:8 0.000134767
8 *290:A1 *290:B1 5.14826e-05
9 *30:20 *37:8 3.67392e-05
10 *30:44 *290:B1 2.64616e-05
11 *33:29 *290:B1 3.85196e-05
12 *33:37 *37:8 8.50457e-05
*RES
1 *288:Y *37:8 40.2579 
2 *37:8 *37:10 15 
3 *37:10 *289:B1 23 
4 *37:10 *290:B1 26.9979 
*END

*D_NET *38 0.000829093
*CONN
*I *293:A I *D sky130_fd_sc_hd__xnor2_1
*I *292:X O *D sky130_fd_sc_hd__or2b_1
*CAP
1 *293:A 0
2 *292:X 0.000161648
3 *38:10 0.000161648
4 *38:10 *48:12 9.64943e-05
5 *38:10 *71:29 0.000218838
6 *279:A1 *38:10 0.000137754
7 *312:A *38:10 5.27117e-05
*RES
1 *292:X *38:10 42.06 
2 *38:10 *293:A 38 
*END

*D_NET *39 0.000791929
*CONN
*I *295:A I *D sky130_fd_sc_hd__xnor2_1
*I *294:X O *D sky130_fd_sc_hd__or2b_1
*CAP
1 *295:A 0
2 *294:X 0.000209117
3 *39:10 0.000209117
4 *39:10 *60:22 4.89774e-05
5 *294:B_N *39:10 0.000188109
6 *28:35 *39:10 0.000136609
*RES
1 *294:X *39:10 41.9564 
2 *39:10 *295:A 38 
*END

*D_NET *40 0.00226445
*CONN
*I *317:A I *D sky130_fd_sc_hd__dlygate4sd3_1
*I *277:A1 I *D sky130_fd_sc_hd__mux2_1
*I *303:Q O *D sky130_fd_sc_hd__dfrtp_1
*CAP
1 *317:A 0
2 *277:A1 0
3 *303:Q 0
4 *40:29 0.000243604
5 *40:16 0.000639849
6 *40:4 0.000883453
7 *40:16 *291:B 0.000115628
8 *40:16 *44:12 5.3304e-05
9 *40:16 *60:40 2.84375e-05
10 *40:16 *73:57 5.3304e-05
11 *40:16 *74:8 1.74126e-05
12 *40:29 *50:22 0.000114984
13 *30:14 *40:29 4.77393e-05
14 *30:20 *40:29 6.67321e-05
*RES
1 *303:Q *40:4 23 
2 *40:4 *40:16 39.715 
3 *40:16 *277:A1 23 
4 *40:4 *40:29 35.365 
5 *40:29 *317:A 23 
*END

*D_NET *41 0.00262051
*CONN
*I *278:A I *D sky130_fd_sc_hd__and3_1
*I *276:B1 I *D sky130_fd_sc_hd__a21o_1
*I *304:Q O *D sky130_fd_sc_hd__dfrtp_1
*CAP
1 *278:A 0.000259206
2 *276:B1 0
3 *304:Q 0.000485702
4 *41:10 0.000744908
5 *278:A *71:29 1.29852e-05
6 *278:A *74:8 0
7 *41:10 *304:CLK 0.000401584
8 *41:10 *304:RESET_B 2.55762e-05
9 *41:10 *45:6 6.02494e-05
10 *41:10 *59:14 5.76359e-05
11 *41:10 *59:69 0.000101014
12 *41:10 *59:73 6.2088e-05
13 *41:10 *71:29 0.000166129
14 *41:10 *73:81 0.000165384
15 *278:B *278:A 1.06972e-05
16 *278:C *278:A 6.29287e-05
17 *25:10 *278:A 4.41821e-06
*RES
1 *304:Q *41:10 49.9936 
2 *41:10 *276:B1 38 
3 *41:10 *278:A 41.6871 
*END

*D_NET *42 0.00263984
*CONN
*I *280:A I *D sky130_fd_sc_hd__and3_1
*I *273:B1 I *D sky130_fd_sc_hd__a21o_1
*I *305:Q O *D sky130_fd_sc_hd__dfrtp_1
*CAP
1 *280:A 0
2 *273:B1 0
3 *305:Q 0.00010702
4 *42:31 0.000633709
5 *42:14 0.000919532
6 *42:8 0.000392842
7 *42:31 *66:14 0
8 *273:A1 *42:14 1.8788e-05
9 *273:A1 *42:31 2.16183e-05
10 *273:A2 *42:31 0.000301289
11 *280:C *42:31 3.6608e-05
12 *7:9 *42:14 0.000147656
13 *20:25 *42:31 8.52094e-06
14 *22:10 *42:14 5.22521e-05
*RES
1 *305:Q *42:8 39.9057 
2 *42:8 *42:14 20.8829 
3 *42:14 *273:B1 23 
4 *42:14 *42:31 42.76 
5 *42:31 *280:A 23 
*END

*D_NET *43 0.0012846
*CONN
*I *319:A I *D sky130_fd_sc_hd__dlygate4sd3_1
*I *284:A I *D sky130_fd_sc_hd__and3_1
*I *306:Q O *D sky130_fd_sc_hd__dfrtp_1
*CAP
1 *319:A 5.145e-05
2 *284:A 0.000249375
3 *306:Q 7.74383e-05
4 *43:8 0.000378264
5 *284:A *303:RESET_B 0.000387187
6 *43:8 *303:RESET_B 0.000140884
*RES
1 *306:Q *43:8 39.9057 
2 *43:8 *284:A 44.1936 
3 *43:8 *319:A 38.6214 
*END

*D_NET *44 0.00115231
*CONN
*I *291:B I *D sky130_fd_sc_hd__xor2_1
*I *277:S I *D sky130_fd_sc_hd__mux2_1
*I *307:Q O *D sky130_fd_sc_hd__dfrtp_1
*CAP
1 *291:B 0.000108956
2 *277:S 0
3 *307:Q 9.86194e-05
4 *44:12 0.000164253
5 *44:8 0.000153916
6 *291:B *50:14 0.000275411
7 *44:12 *50:14 6.52749e-05
8 *44:12 *73:57 2.31591e-05
9 *44:12 *73:69 3.22051e-05
10 *28:14 *44:8 6.15872e-05
11 *40:16 *291:B 0.000115628
12 *40:16 *44:12 5.3304e-05
*RES
1 *307:Q *44:8 39.9057 
2 *44:8 *44:12 16.5743 
3 *44:12 *277:S 23 
4 *44:12 *291:B 26.9979 
*END

*D_NET *45 0.00386875
*CONN
*I *274:B I *D sky130_fd_sc_hd__or2_1
*I *275:B I *D sky130_fd_sc_hd__nand2_1
*I *308:Q O *D sky130_fd_sc_hd__dfrtp_1
*CAP
1 *274:B 0.000212612
2 *275:B 7.01672e-05
3 *308:Q 0.000911248
4 *45:10 0.000366504
5 *45:6 0.000994974
6 *274:B *73:69 1.24376e-05
7 *275:B *59:69 0.000233367
8 *275:B *71:29 0.000128106
9 *275:B *73:81 5.47983e-06
10 *45:6 *308:RESET_B 0.000180637
11 *45:6 *59:14 0.000321419
12 *11:13 *274:B 0.000261279
13 *11:13 *45:10 0.000110267
14 *41:10 *45:6 6.02494e-05
*RES
1 *308:Q *45:6 35.5321 
2 *45:6 *45:10 16.5536 
3 *45:10 *275:B 41.0243 
4 *45:10 *274:B 42.2879 
*END

*D_NET *46 0.000965581
*CONN
*I *271:A I *D sky130_fd_sc_hd__or2_1
*I *272:A I *D sky130_fd_sc_hd__nand2_1
*I *309:Q O *D sky130_fd_sc_hd__dfrtp_1
*CAP
1 *271:A 0.00012463
2 *272:A 8.76858e-05
3 *309:Q 7.61416e-05
4 *46:8 0.000288458
5 *271:A *271:B 7.19844e-05
6 *272:A *271:B 3.04568e-05
7 *272:A *272:B 0.000110069
8 *272:A *309:RESET_B 0.000146822
9 *46:8 *272:B 2.93335e-05
*RES
1 *309:Q *46:8 39.0979 
2 *46:8 *272:A 40.9207 
3 *46:8 *271:A 40.2579 
*END

*D_NET *47 0.00270757
*CONN
*I *283:B I *D sky130_fd_sc_hd__nand2_1
*I *282:B I *D sky130_fd_sc_hd__or2_1
*I *310:Q O *D sky130_fd_sc_hd__dfrtp_1
*CAP
1 *283:B 0.000198365
2 *282:B 0
3 *310:Q 0.000267322
4 *47:8 0.000465687
5 *283:B *282:A 0.000168524
6 *283:B *283:A 0.000144751
7 *283:B *303:RESET_B 1.97402e-05
8 *283:B *335:A 4.93812e-05
9 *283:B *59:102 8.7975e-05
10 *283:B *73:8 2.53488e-05
11 *47:8 *59:95 6.68378e-05
12 *47:8 *59:102 0.000332264
13 *47:8 *62:18 0.000757351
14 *32:10 *283:B 0.000124023
*RES
1 *310:Q *47:8 48.7093 
2 *47:8 *282:B 38 
3 *47:8 *283:B 44.4629 
*END

*D_NET *48 0.00681813
*CONN
*I *314:A I *D sky130_fd_sc_hd__clkbuf_16
*I *313:A I *D sky130_fd_sc_hd__clkbuf_16
*I *312:X O *D sky130_fd_sc_hd__clkbuf_16
*CAP
1 *314:A 0.000140897
2 *313:A 0
3 *312:X 0.000733785
4 *48:32 0.00192727
5 *48:16 0.00209003
6 *48:12 0.000755651
7 *314:A *73:69 0.000152328
8 *314:A *75:10 4.96303e-05
9 *48:16 *73:69 2.26406e-05
10 *48:32 *49:29 0.000367633
11 *292:A *48:12 0.000278295
12 *292:B_N *48:12 5.40337e-05
13 *312:A *48:12 9.91843e-05
14 *11:13 *48:32 5.0258e-05
15 *38:10 *48:12 9.64943e-05
*RES
1 *312:X *48:12 37.6243 
2 *48:12 *48:16 15.3211 
3 *48:16 *48:32 40.2888 
4 *48:32 *313:A 38 
5 *48:16 *314:A 41.1796 
*END

*D_NET *49 0.00949236
*CONN
*I *310:CLK I *D sky130_fd_sc_hd__dfrtp_1
*I *300:CLK I *D sky130_fd_sc_hd__dfrtp_1
*I *301:CLK I *D sky130_fd_sc_hd__dfrtp_1
*I *297:CLK I *D sky130_fd_sc_hd__dfrtp_1
*I *308:CLK I *D sky130_fd_sc_hd__dfrtp_1
*I *304:CLK I *D sky130_fd_sc_hd__dfrtp_1
*I *302:CLK I *D sky130_fd_sc_hd__dfrtp_1
*I *313:X O *D sky130_fd_sc_hd__clkbuf_16
*CAP
1 *310:CLK 0
2 *300:CLK 0
3 *301:CLK 6.72524e-05
4 *297:CLK 0
5 *308:CLK 0
6 *304:CLK 0.000706163
7 *302:CLK 0
8 *313:X 0.000213858
9 *49:89 0.000650689
10 *49:70 0.000890758
11 *49:66 0.000483558
12 *49:59 0.00102533
13 *49:29 0.00115034
14 *49:23 0.0014263
15 *49:14 0.000172915
16 *49:6 0.000654305
17 *304:CLK *304:RESET_B 9.08709e-06
18 *304:CLK *59:14 1.358e-05
19 *304:CLK *62:18 5.02551e-05
20 *49:14 *72:18 8.16279e-05
21 *49:29 *68:12 0.00025641
22 *49:59 *297:RESET_B 1.26547e-05
23 *49:59 *55:10 0.000313834
24 *49:59 *59:85 2.12017e-05
25 *49:59 *63:14 1.42306e-05
26 *49:66 *59:85 0.000223664
27 *49:89 *300:D 6.17437e-06
28 *49:89 *77:8 8.71559e-05
29 *288:A *49:89 9.91958e-05
30 *11:13 *49:14 3.68205e-05
31 *30:20 *49:89 5.57889e-05
32 *41:10 *304:CLK 0.000401584
33 *48:32 *49:29 0.000367633
*RES
1 *313:X *49:6 25.5271 
2 *49:6 *49:14 33.48 
3 *49:14 *302:CLK 23 
4 *49:6 *49:23 4.45357 
5 *49:23 *49:29 41.7657 
6 *49:29 *304:CLK 34.8071 
7 *49:29 *308:CLK 23 
8 *49:23 *49:59 11.6414 
9 *49:59 *297:CLK 23 
10 *49:59 *49:66 6.815 
11 *49:66 *49:70 17.9621 
12 *49:70 *301:CLK 39.0979 
13 *49:70 *49:89 27.8014 
14 *49:89 *300:CLK 23 
15 *49:66 *310:CLK 23 
*END

*D_NET *50 0.0104566
*CONN
*I *305:CLK I *D sky130_fd_sc_hd__dfrtp_1
*I *299:CLK I *D sky130_fd_sc_hd__dfrtp_1
*I *307:CLK I *D sky130_fd_sc_hd__dfrtp_1
*I *298:CLK I *D sky130_fd_sc_hd__dfrtp_1
*I *303:CLK I *D sky130_fd_sc_hd__dfrtp_1
*I *306:CLK I *D sky130_fd_sc_hd__dfrtp_1
*I *311:CLK I *D sky130_fd_sc_hd__dfrtp_2
*I *309:CLK I *D sky130_fd_sc_hd__dfrtp_1
*I *314:X O *D sky130_fd_sc_hd__clkbuf_16
*CAP
1 *305:CLK 0.000647458
2 *299:CLK 6.25271e-05
3 *307:CLK 0
4 *298:CLK 6.05272e-05
5 *303:CLK 0
6 *306:CLK 3.99192e-05
7 *311:CLK 1.78293e-05
8 *309:CLK 0
9 *314:X 0.000289464
10 *50:74 0.000959773
11 *50:60 6.05272e-05
12 *50:58 0.000358301
13 *50:51 0.000843934
14 *50:36 0.000926171
15 *50:22 0.000518238
16 *50:14 0.00171187
17 *50:10 0.00156712
18 *298:CLK *298:D 0.000141347
19 *298:CLK *298:RESET_B 2.95423e-05
20 *299:CLK *299:D 7.88828e-05
21 *299:CLK *299:RESET_B 2.93747e-05
22 *305:CLK *305:D 5.20055e-05
23 *305:CLK *305:RESET_B 2.57362e-05
24 *305:CLK *67:8 0
25 *311:CLK *69:12 3.22051e-05
26 *50:10 *59:39 0.000108786
27 *50:14 *291:A 3.46216e-05
28 *50:14 *66:14 1.23353e-05
29 *50:14 *73:69 0.000104068
30 *50:22 *311:RESET_B 0
31 *50:22 *66:14 0.00079792
32 *50:22 *69:12 7.67556e-05
33 *50:36 *66:14 1.08287e-05
34 *50:51 *303:RESET_B 6.68378e-05
35 *50:51 *306:RESET_B 2.15162e-05
36 *50:51 *66:14 3.24862e-05
37 *50:51 *73:8 3.84905e-05
38 *50:58 *59:39 5.77452e-05
39 *50:74 *299:RESET_B 0.000161116
40 *50:74 *59:39 2.46399e-05
41 *50:74 *67:8 0
42 *291:B *50:14 0.000275411
43 *40:29 *50:22 0.000114984
44 *44:12 *50:14 6.52749e-05
*RES
1 *314:X *50:10 43.0129 
2 *50:10 *50:14 30.8671 
3 *50:14 *50:22 42.76 
4 *50:22 *309:CLK 23 
5 *50:22 *311:CLK 23.6214 
6 *50:14 *50:36 0.621429 
7 *50:36 *306:CLK 23.8493 
8 *50:36 *50:51 41.5793 
9 *50:51 *303:CLK 23 
10 *50:10 *50:58 1.90571 
11 *50:58 *50:60 15 
12 *50:60 *298:CLK 24.5743 
13 *50:60 *307:CLK 23 
14 *50:58 *50:74 5.77929 
15 *50:74 *299:CLK 39.5743 
16 *50:74 *305:CLK 49.5586 
*END

*D_NET *51 0.00141087
*CONN
*I *303:D I *D sky130_fd_sc_hd__dfrtp_1
*I *320:X O *D sky130_fd_sc_hd__clkbuf_1
*CAP
1 *303:D 0.000269187
2 *320:X 0.000387789
3 *51:10 0.000656976
4 *303:D *303:RESET_B 5.5792e-05
5 *51:10 *73:8 4.11274e-05
*RES
1 *320:X *51:10 43.1579 
2 *51:10 *303:D 42.4536 
*END

*D_NET *52 0.00195834
*CONN
*I *311:D I *D sky130_fd_sc_hd__dfrtp_2
*I *321:X O *D sky130_fd_sc_hd__clkbuf_1
*CAP
1 *311:D 0
2 *321:X 7.57656e-05
3 *52:14 0.000467703
4 *52:8 0.000543469
5 *52:8 *69:8 2.14486e-05
6 *52:14 *311:RESET_B 0.00012721
7 *52:14 *69:12 0.000579784
8 *52:14 *73:36 0.000142959
*RES
1 *321:X *52:8 39.2014 
2 *52:8 *52:14 28.3814 
3 *52:14 *311:D 23 
*END

*D_NET *53 0.000755957
*CONN
*I *330:A I *D sky130_fd_sc_hd__buf_2
*I *301:Q O *D sky130_fd_sc_hd__dfrtp_1
*CAP
1 *330:A 0.000277809
2 *301:Q 5.62262e-05
3 *53:8 0.000334035
4 *53:8 *62:18 8.78864e-05
*RES
1 *301:Q *53:8 39.2014 
2 *53:8 *330:A 42.8057 
*END

*D_NET *54 0.00036896
*CONN
*I *331:A I *D sky130_fd_sc_hd__clkbuf_4